CHEMBL134277
     RDKit          2D

 28 32  0  0  0  0  0  0  0  0999 V2000
    0.7500   -6.4952    0.0000 C   0  0  0  0  0  0  0  0  0  0  0  0
   -0.7500   -6.4952    0.0000 C   0  0  0  0  0  0  0  0  0  0  0  0
   -1.5000   -7.7942    0.0000 C   0  0  0  0  0  0  0  0  0  0  0  0
   -3.0000   -7.7942    0.0000 C   0  0  0  0  0  0  0  0  0  0  0  0
   -2.7395   -9.2714    0.0000 C   0  0  0  0  0  0  0  0  0  0  0  0
   -4.4095   -8.3073    0.0000 C   0  0  0  0  0  0  0  0  0  0  0  0
   -3.7500   -6.4952    0.0000 N   0  0  0  0  0  0  0  0  0  0  0  0
   -3.0000   -5.1962    0.0000 C   0  0  0  0  0  0  0  0  0  0  0  0
   -3.7500   -3.8971    0.0000 C   0  0  0  0  0  0  0  0  0  0  0  0
   -3.0000   -2.5981    0.0000 C   0  0  0  0  0  0  0  0  0  0  0  0
   -1.5000   -2.5981    0.0000 C   0  0  0  0  0  0  0  0  0  0  0  0
   -0.7500   -3.8971    0.0000 C   0  0  0  0  0  0  0  0  0  0  0  0
   -1.5000   -5.1962    0.0000 C   0  0  0  0  0  0  0  0  0  0  0  0
    0.7500   -3.8971    0.0000 C   0  0  0  0  0  0  0  0  0  0  0  0
    1.5000   -5.1962    0.0000 C   0  0  0  0  0  0  0  0  0  0  0  0
    3.0000   -5.1962    0.0000 C   0  0  0  0  0  0  0  0  0  0  0  0
    3.8817   -3.9826    0.0000 C   0  0  0  0  0  0  0  0  0  0  0  0
    5.3083   -4.4462    0.0000 C   0  0  0  0  0  0  0  0  0  0  0  0
    5.3083   -5.9462    0.0000 S   0  0  0  0  0  0  0  0  0  0  0  0
    3.8817   -6.4097    0.0000 C   0  0  0  0  0  0  0  0  0  0  0  0
    1.5000   -2.5981    0.0000 O   0  0  0  0  0  0  0  0  0  0  0  0
    0.7500   -1.2990    0.0000 C   0  0  0  0  0  0  0  0  0  0  0  0
    1.5000    0.0000    0.0000 C   0  0  0  0  0  0  0  0  0  0  0  0
    0.7500    1.2990    0.0000 C   0  0  0  0  0  0  0  0  0  0  0  0
   -0.7500    1.2990    0.0000 C   0  0  0  0  0  0  0  0  0  0  0  0
   -1.5000    2.5981    0.0000 F   0  0  0  0  0  0  0  0  0  0  0  0
   -1.5000    0.0000    0.0000 C   0  0  0  0  0  0  0  0  0  0  0  0
   -0.7500   -1.2990    0.0000 C   0  0  0  0  0  0  0  0  0  0  0  0
  1  2  1  0
  2  3  2  0
  3  4  1  0
  4  5  1  0
  4  6  1  0
  4  7  1  0
  7  8  1  0
  8  9  2  0
  9 10  1  0
 10 11  2  0
 11 12  1  0
 12 13  2  0
 12 14  1  0
 14 15  2  0
 15 16  1  0
 16 17  1  0
 17 18  2  0
 18 19  1  0
 19 20  1  0
 14 21  1  0
 21 22  1  0
 22 23  2  0
 23 24  1  0
 24 25  2  0
 25 26  1  0
 25 27  1  0
 27 28  2  0
 13  2  1  0
 20 16  2  0
 28 22  1  0
 13  8  1  0
 28 11  1  0
M  END
>  <assay_chembl_id>  (1) 
CHEMBL647746

>  <assay_description>  (1) 
Inhibition of human androgen receptor at 10e-12 to 10e-5 M

>  <parent_molecule_chembl_id>  (1) 
CHEMBL134277

>  <canonical_smiles>  (1) 
CC1=CC(C)(C)Nc2ccc3c(c21)/C(=C/c1ccsc1)Oc1ccc(F)cc1-3

>  <standard_type>  (1) 
IC50

>  <standard_relation>  (1) 
=

>  <standard_value>  (1) 
215.0

>  <standard_units>  (1) 
nM

>  <target_pref_name>  (1) 
Androgen Receptor

>  <target_chembl_id>  (1) 
CHEMBL1871

>  <target_organism>  (1) 
Homo sapiens

>  <pchembl_median>  (1) 
7.645

$$$$
CHEMBL146794
     RDKit          2D

 38 40  0  0  0  0  0  0  0  0999 V2000
    4.7302   -3.7586    0.0000 C   0  0  0  0  0  0  0  0  0  0  0  0
    3.3037   -4.2221    0.0000 C   0  0  0  0  0  0  0  0  0  0  0  0
    3.9138   -5.5924    0.0000 C   0  0  0  0  0  0  0  0  0  0  0  0
    2.9918   -2.7549    0.0000 C   0  0  0  0  0  0  0  0  0  0  0  0
    3.9955   -1.6402    0.0000 O   0  0  0  0  0  0  0  0  0  0  0  0
    1.5000   -2.5981    0.0000 N   0  0  0  0  0  0  0  0  0  0  0  0
    0.7500   -1.2990    0.0000 C   0  0  0  0  0  0  0  0  0  0  0  0
    1.5000    0.0000    0.0000 C   0  0  0  0  0  0  0  0  0  0  0  0
    0.7500    1.2990    0.0000 C   0  0  0  0  0  0  0  0  0  0  0  0
   -0.7500    1.2990    0.0000 C   0  0  0  0  0  0  0  0  0  0  0  0
   -1.5000    2.5981    0.0000 C   0  0  0  0  0  0  0  0  0  0  0  0
   -2.2500    3.8971    0.0000 N   0  0  0  0  0  0  0  0  0  0  0  0
   -1.5000    0.0000    0.0000 C   0  0  0  0  0  0  0  0  0  0  0  0
   -3.0000    0.0000    0.0000 C   0  0  0  0  0  0  0  0  0  0  0  0
   -4.5000    0.0000    0.0000 F   0  0  0  0  0  0  0  0  0  0  0  0
   -3.0000   -1.5000    0.0000 F   0  0  0  0  0  0  0  0  0  0  0  0
   -3.0000    1.5000    0.0000 F   0  0  0  0  0  0  0  0  0  0  0  0
   -0.7500   -1.2990    0.0000 C   0  0  0  0  0  0  0  0  0  0  0  0
    0.8899   -3.9684    0.0000 C   0  0  0  0  0  0  0  0  0  0  0  0
   -0.5773   -4.2803    0.0000 O   0  0  0  0  0  0  0  0  0  0  0  0
    2.0046   -4.9721    0.0000 N   0  0  0  0  0  0  0  0  0  0  0  0
    1.8478   -6.4639    0.0000 C   0  0  0  0  0  0  0  0  0  0  0  0
    0.4775   -7.0740    0.0000 C   0  0  0  0  0  0  0  0  0  0  0  0
    0.3207   -8.5658    0.0000 O   0  0  0  0  0  0  0  0  0  0  0  0
   -1.0496   -9.1759    0.0000 C   0  0  0  0  0  0  0  0  0  0  0  0
   -1.2064  -10.6676    0.0000 C   0  0  0  0  0  0  0  0  0  0  0  0
   -2.5767  -11.2778    0.0000 O   0  0  0  0  0  0  0  0  0  0  0  0
   -2.7335  -12.7695    0.0000 C   0  0  0  0  0  0  0  0  0  0  0  0
   -4.1038  -13.3796    0.0000 C   0  0  0  0  0  0  0  0  0  0  0  0
   -5.3174  -12.4980    0.0000 C   0  0  0  0  0  0  0  0  0  0  0  0
   -6.6877  -13.1081    0.0000 C   0  0  0  0  0  0  0  0  0  0  0  0
   -6.8445  -14.5999    0.0000 C   0  0  0  0  0  0  0  0  0  0  0  0
   -8.2148  -15.2100    0.0000 O   0  0  0  0  0  0  0  0  0  0  0  0
   -5.6309  -15.4815    0.0000 C   0  0  0  0  0  0  0  0  0  0  0  0
   -5.7877  -16.9733    0.0000 C   0  0  0  0  0  0  0  0  0  0  0  0
   -4.5742  -17.8550    0.0000 N   0  0  0  0  0  0  0  0  0  0  0  0
   -7.1581  -17.5834    0.0000 O   0  0  0  0  0  0  0  0  0  0  0  0
   -4.2606  -14.8714    0.0000 C   0  0  0  0  0  0  0  0  0  0  0  0
  1  2  1  0
  2  3  1  0
  2  4  1  0
  4  5  2  0
  4  6  1  0
  6  7  1  0
  7  8  2  0
  8  9  1  0
  9 10  2  0
 10 11  1  0
 11 12  3  0
 10 13  1  0
 13 14  1  0
 14 15  1  0
 14 16  1  0
 14 17  1  0
 13 18  2  0
  6 19  1  0
 19 20  2  0
 19 21  1  0
 21 22  1  0
 22 23  1  0
 23 24  1  0
 24 25  1  0
 25 26  1  0
 26 27  1  0
 27 28  1  0
 28 29  1  0
 29 30  2  0
 30 31  1  0
 31 32  2  0
 32 33  1  0
 32 34  1  0
 34 35  1  0
 35 36  1  0
 35 37  2  0
 34 38  2  0
 21  2  1  0
 38 29  1  0
 18  7  1  0
M  END
>  <assay_chembl_id>  (2) 
CHEMBL647749

>  <assay_description>  (2) 
Inhibition of 1.0 nM [3H]mibolerone binding to human androgen receptor of PC3/AR cell lysate

>  <parent_molecule_chembl_id>  (2) 
CHEMBL146794

>  <canonical_smiles>  (2) 
CC1(C)C(=O)N(c2ccc(C#N)c(C(F)(F)F)c2)C(=O)N1CCOCCOCc1ccc(O)c(C(N)=O)c1

>  <standard_type>  (2) 
IC50

>  <standard_relation>  (2) 
=

>  <standard_value>  (2) 
77.0

>  <standard_units>  (2) 
nM

>  <target_pref_name>  (2) 
Androgen Receptor

>  <target_chembl_id>  (2) 
CHEMBL1871

>  <target_organism>  (2) 
Homo sapiens

>  <pchembl_median>  (2) 
6.38

$$$$
CHEMBL2112885
     RDKit          2D

 77 84  0  0  0  0  0  0  0  0999 V2000
    3.7500   -1.2990    0.0000 C   0  0  0  0  0  0  0  0  0  0  0  0
    3.0000    0.0000    0.0000 O   0  0  0  0  0  0  0  0  0  0  0  0
    1.5000    0.0000    0.0000 C   0  0  0  0  0  0  0  0  0  0  0  0
    0.7500   -1.2990    0.0000 C   0  0  0  0  0  0  0  0  0  0  0  0
   -0.7500   -1.2990    0.0000 C   0  0  0  0  0  0  0  0  0  0  0  0
   -1.5000    0.0000    0.0000 C   0  0  0  0  0  0  0  0  0  0  0  0
   -0.7500    1.2990    0.0000 C   0  0  0  0  0  0  0  0  0  0  0  0
    0.7500    1.2990    0.0000 C   0  0  0  0  0  0  0  0  0  0  0  0
    1.5000    2.5981    0.0000 C   0  0  0  0  0  0  0  0  0  0  0  0
    3.0000    2.5981    0.0000 O   0  0  0  0  0  0  0  0  0  0  0  0
    0.7500    3.8971    0.0000 C   0  0  0  0  0  0  0  0  0  0  0  0
    1.5000    5.1962    0.0000 C   0  0  0  0  0  0  0  0  0  0  0  0
    3.0000    5.1962    0.0000 O   0  0  0  0  0  0  0  0  0  0  0  0
    0.7500    6.4952    0.0000 C   0  0  0  0  0  0  0  0  0  0  0  0
   -0.7500    6.4952    0.0000 C   0  0  0  0  0  0  0  0  0  0  0  0
   -1.5000    5.1962    0.0000 C   0  0  0  0  0  0  0  0  0  0  0  0
   -3.0000    5.1962    0.0000 O   0  0  0  0  0  0  0  0  0  0  0  0
   -0.7500    3.8971    0.0000 C   0  0  0  0  0  0  0  0  0  0  0  0
   -1.5000    2.5981    0.0000 C   0  0  0  0  0  0  0  0  0  0  0  0
   -3.0000    2.5981    0.0000 O   0  0  0  0  0  0  0  0  0  0  0  0
   -1.5000    7.7942    0.0000 C   0  0  0  0  0  0  0  0  0  0  0  0
   -0.7500    9.0933    0.0000 C   0  0  0  0  0  0  0  0  0  0  0  0
   -2.1595    9.6063    0.0000 O   0  0  0  0  0  0  0  0  0  0  0  0
   -0.4895   10.5705    0.0000 C   0  0  0  0  0  0  0  0  0  0  0  0
    0.9200   11.0835    0.0000 O   0  0  0  0  0  0  0  0  0  0  0  0
   -1.6386   11.5347    0.0000 C   0  0  0  0  0  0  0  0  0  0  0  0
   -1.3781   13.0119    0.0000 O   0  0  0  0  0  0  0  0  0  0  0  0
    0.7500    9.0933    0.0000 C   0  0  0  0  0  0  0  0  0  0  0  0
    1.5000    7.7942    0.0000 C   0  0  0  0  0  0  0  0  0  0  0  0
    3.0000    7.7942    0.0000 O   0  0  0  0  0  0  0  0  0  0  0  0
    3.7500    9.0933    0.0000 C   0  0  0  0  0  0  0  0  0  0  0  0
    5.2500    9.0933    0.0000 C   0  0  0  0  0  0  0  0  0  0  0  0
    6.0000   10.3923    0.0000 C   0  0  0  0  0  0  0  0  0  0  0  0
    7.5000   10.3923    0.0000 N   0  0  0  0  0  0  0  0  0  0  0  0
    8.2500    9.0933    0.0000 C   0  0  0  0  0  0  0  0  0  0  0  0
    9.7500    9.0933    0.0000 N   0  0  0  0  0  0  0  0  0  0  0  0
   10.5000    7.7942    0.0000 C   0  0  0  0  0  0  0  0  0  0  0  0
    9.7500    6.4952    0.0000 O   0  0  0  0  0  0  0  0  0  0  0  0
   12.0000    7.7942    0.0000 C   0  0  0  0  0  0  0  0  0  0  0  0
   12.7500    6.4952    0.0000 C   0  0  0  0  0  0  0  0  0  0  0  0
   14.2500    6.4952    0.0000 C   0  0  0  0  0  0  0  0  0  0  0  0
   15.0000    5.1962    0.0000 C   0  0  0  0  0  0  0  0  0  0  0  0
   14.2500    3.8971    0.0000 O   0  0  0  0  0  0  0  0  0  0  0  0
   15.0000    2.5981    0.0000 C   0  0  0  0  0  0  0  0  0  0  0  0
   14.2500    1.2990    0.0000 C   0  0  0  0  0  0  0  0  0  0  0  0
   13.5000    0.0000    0.0000 C   0  0  0  0  0  0  0  0  0  0  0  0
   12.7500   -1.2990    0.0000 C   0  0  0  0  0  0  0  0  0  0  0  0
   13.5000   -2.5981    0.0000 N   0  0  0  0  0  0  0  0  0  0  0  0
   14.9918   -2.7549    0.0000 C   0  0  0  0  0  0  0  0  0  0  0  0
   15.9955   -1.6402    0.0000 O   0  0  0  0  0  0  0  0  0  0  0  0
   15.3037   -4.2221    0.0000 N   0  0  0  0  0  0  0  0  0  0  0  0
   16.6740   -4.8322    0.0000 C   0  0  0  0  0  0  0  0  0  0  0  0
   16.8308   -6.3240    0.0000 C   0  0  0  0  0  0  0  0  0  0  0  0
   18.2011   -6.9341    0.0000 C   0  0  0  0  0  0  0  0  0  0  0  0
   19.4146   -6.0524    0.0000 C   0  0  0  0  0  0  0  0  0  0  0  0
   20.7849   -6.6625    0.0000 C   0  0  0  0  0  0  0  0  0  0  0  0
   22.1552   -7.2726    0.0000 N   0  0  0  0  0  0  0  0  0  0  0  0
   19.2578   -4.5606    0.0000 C   0  0  0  0  0  0  0  0  0  0  0  0
   20.4713   -3.6789    0.0000 C   0  0  0  0  0  0  0  0  0  0  0  0
   21.6849   -2.7973    0.0000 F   0  0  0  0  0  0  0  0  0  0  0  0
   19.5897   -2.4654    0.0000 F   0  0  0  0  0  0  0  0  0  0  0  0
   21.3530   -4.8925    0.0000 F   0  0  0  0  0  0  0  0  0  0  0  0
   17.8875   -3.9505    0.0000 C   0  0  0  0  0  0  0  0  0  0  0  0
   14.0046   -4.9721    0.0000 C   0  0  0  0  0  0  0  0  0  0  0  0
   13.8478   -6.4639    0.0000 O   0  0  0  0  0  0  0  0  0  0  0  0
   12.8899   -3.9684    0.0000 C   0  0  0  0  0  0  0  0  0  0  0  0
   12.0082   -5.1819    0.0000 C   0  0  0  0  0  0  0  0  0  0  0  0
   11.5909   -3.2184    0.0000 C   0  0  0  0  0  0  0  0  0  0  0  0
   15.0000    7.7942    0.0000 C   0  0  0  0  0  0  0  0  0  0  0  0
   14.2500    9.0933    0.0000 C   0  0  0  0  0  0  0  0  0  0  0  0
   12.7500    9.0933    0.0000 C   0  0  0  0  0  0  0  0  0  0  0  0
   12.0000   10.3923    0.0000 O   0  0  0  0  0  0  0  0  0  0  0  0
    5.2500   11.6913    0.0000 C   0  0  0  0  0  0  0  0  0  0  0  0
    6.0000   12.9904    0.0000 O   0  0  0  0  0  0  0  0  0  0  0  0
    3.7500   11.6913    0.0000 C   0  0  0  0  0  0  0  0  0  0  0  0
    3.0000   12.9904    0.0000 C   0  0  0  0  0  0  0  0  0  0  0  0
    3.0000   10.3923    0.0000 O   0  0  0  0  0  0  0  0  0  0  0  0
  1  2  1  0
  2  3  1  0
  3  4  2  0
  4  5  1  0
  5  6  2  0
  6  7  1  0
  7  8  2  0
  8  9  1  0
  9 10  2  0
  9 11  1  0
 11 12  2  0
 12 13  1  0
 12 14  1  0
 14 15  2  0
 15 16  1  0
 16 17  1  0
 16 18  2  0
 18 19  1  0
 19 20  2  0
 15 21  1  0
 21 22  1  0
 22 23  1  6
 22 24  1  0
 24 25  2  0
 24 26  1  0
 26 27  1  0
 22 28  1  0
 28 29  1  0
 29 30  1  6
 30 31  1  0
 31 32  1  0
 32 33  1  0
 33 34  1  1
 34 35  1  0
 35 36  1  0
 36 37  1  0
 37 38  2  0
 37 39  1  0
 39 40  2  0
 40 41  1  0
 41 42  1  0
 42 43  1  0
 43 44  1  0
 44 45  1  0
 45 46  3  0
 46 47  1  0
 47 48  1  0
 48 49  1  0
 49 50  2  0
 49 51  1  0
 51 52  1  0
 52 53  2  0
 53 54  1  0
 54 55  2  0
 55 56  1  0
 56 57  3  0
 55 58  1  0
 58 59  1  0
 59 60  1  0
 59 61  1  0
 59 62  1  0
 58 63  2  0
 51 64  1  0
 64 65  2  0
 64 66  1  0
 66 67  1  0
 66 68  1  0
 41 69  2  0
 69 70  1  0
 70 71  2  0
 71 72  1  0
 33 73  1  0
 73 74  1  1
 73 75  1  0
 75 76  1  1
 75 77  1  0
  8  3  1  0
 18 11  1  0
 77 31  1  0
 19  7  1  0
 71 39  1  0
 29 14  1  0
 66 48  1  0
 63 52  1  0
M  END
>  <assay_chembl_id>  (3) 
CHEMBL647749

>  <assay_description>  (3) 
Inhibition of 1.0 nM [3H]mibolerone binding to human androgen receptor of PC3/AR cell lysate

>  <parent_molecule_chembl_id>  (3) 
CHEMBL2112885

>  <canonical_smiles>  (3) 
COc1cccc2c1C(=O)c1c(O)c3c(c(O)c1C2=O)C[C@@](O)(C(=O)CO)C[C@@H]3OC1C[C@H](NCNC(=O)c2cc(COCC#CCN3C(=O)N(c4ccc(C#N)c(C(F)(F)F)c4)C(=O)C3(C)C)ccc2O)[C@H](O)[C@H](C)O1

>  <standard_type>  (3) 
IC50

>  <standard_relation>  (3) 
=

>  <standard_value>  (3) 
90.0

>  <standard_units>  (3) 
nM

>  <target_pref_name>  (3) 
Androgen Receptor

>  <target_chembl_id>  (3) 
CHEMBL1871

>  <target_organism>  (3) 
Homo sapiens

>  <pchembl_median>  (3) 
6.44

$$$$
CHEMBL336353
     RDKit          2D

 32 36  0  0  0  0  0  0  0  0999 V2000
    0.7500   -6.4952    0.0000 C   0  0  0  0  0  0  0  0  0  0  0  0
   -0.7500   -6.4952    0.0000 C   0  0  0  0  0  0  0  0  0  0  0  0
   -1.5000   -7.7942    0.0000 C   0  0  0  0  0  0  0  0  0  0  0  0
   -3.0000   -7.7942    0.0000 C   0  0  0  0  0  0  0  0  0  0  0  0
   -2.7395   -9.2714    0.0000 C   0  0  0  0  0  0  0  0  0  0  0  0
   -4.4095   -8.3073    0.0000 C   0  0  0  0  0  0  0  0  0  0  0  0
   -3.7500   -6.4952    0.0000 N   0  0  0  0  0  0  0  0  0  0  0  0
   -3.0000   -5.1962    0.0000 C   0  0  0  0  0  0  0  0  0  0  0  0
   -3.7500   -3.8971    0.0000 C   0  0  0  0  0  0  0  0  0  0  0  0
   -3.0000   -2.5981    0.0000 C   0  0  0  0  0  0  0  0  0  0  0  0
   -1.5000   -2.5981    0.0000 C   0  0  0  0  0  0  0  0  0  0  0  0
   -0.7500   -3.8971    0.0000 C   0  0  0  0  0  0  0  0  0  0  0  0
   -1.5000   -5.1962    0.0000 C   0  0  0  0  0  0  0  0  0  0  0  0
    0.7500   -3.8971    0.0000 C   0  0  0  0  0  0  0  0  0  0  0  0
    1.5000   -5.1962    0.0000 C   0  0  0  0  0  0  0  0  0  0  0  0
    3.0000   -5.1962    0.0000 C   0  0  0  0  0  0  0  0  0  0  0  0
    3.7500   -3.8971    0.0000 C   0  0  0  0  0  0  0  0  0  0  0  0
    5.2500   -3.8971    0.0000 C   0  0  0  0  0  0  0  0  0  0  0  0
    6.0000   -5.1962    0.0000 C   0  0  0  0  0  0  0  0  0  0  0  0
    5.2500   -6.4952    0.0000 C   0  0  0  0  0  0  0  0  0  0  0  0
    3.7500   -6.4952    0.0000 C   0  0  0  0  0  0  0  0  0  0  0  0
    3.0000   -7.7942    0.0000 N   0  0  0  0  0  0  0  0  0  0  0  0
    3.7500   -9.0933    0.0000 C   0  0  0  0  0  0  0  0  0  0  0  0
    1.5000   -7.7942    0.0000 C   0  0  0  0  0  0  0  0  0  0  0  0
    1.5000   -2.5981    0.0000 O   0  0  0  0  0  0  0  0  0  0  0  0
    0.7500   -1.2990    0.0000 C   0  0  0  0  0  0  0  0  0  0  0  0
    1.5000    0.0000    0.0000 C   0  0  0  0  0  0  0  0  0  0  0  0
    0.7500    1.2990    0.0000 C   0  0  0  0  0  0  0  0  0  0  0  0
   -0.7500    1.2990    0.0000 C   0  0  0  0  0  0  0  0  0  0  0  0
   -1.5000    2.5981    0.0000 F   0  0  0  0  0  0  0  0  0  0  0  0
   -1.5000    0.0000    0.0000 C   0  0  0  0  0  0  0  0  0  0  0  0
   -0.7500   -1.2990    0.0000 C   0  0  0  0  0  0  0  0  0  0  0  0
  1  2  1  0
  2  3  2  0
  3  4  1  0
  4  5  1  0
  4  6  1  0
  4  7  1  0
  7  8  1  0
  8  9  2  0
  9 10  1  0
 10 11  2  0
 11 12  1  0
 12 13  2  0
 12 14  1  0
 14 15  2  0
 15 16  1  0
 16 17  2  0
 17 18  1  0
 18 19  2  0
 19 20  1  0
 20 21  2  0
 21 22  1  0
 22 23  1  0
 22 24  1  0
 14 25  1  0
 25 26  1  0
 26 27  2  0
 27 28  1  0
 28 29  2  0
 29 30  1  0
 29 31  1  0
 31 32  2  0
 13  2  1  0
 21 16  1  0
 32 26  1  0
 13  8  1  0
 32 11  1  0
M  END
>  <assay_chembl_id>  (4) 
CHEMBL647746

>  <assay_description>  (4) 
Inhibition of human androgen receptor at 10e-12 to 10e-5 M

>  <parent_molecule_chembl_id>  (4) 
CHEMBL336353

>  <canonical_smiles>  (4) 
CC1=CC(C)(C)Nc2ccc3c(c21)/C(=C/c1ccccc1N(C)C)Oc1ccc(F)cc1-3

>  <standard_type>  (4) 
IC50

>  <standard_relation>  (4) 
=

>  <standard_value>  (4) 
1500.0

>  <standard_units>  (4) 
nM

>  <target_pref_name>  (4) 
Androgen Receptor

>  <target_chembl_id>  (4) 
CHEMBL1871

>  <target_organism>  (4) 
Homo sapiens

>  <pchembl_median>  (4) 
7.025

$$$$
CHEMBL413309
     RDKit          2D

 29 33  0  0  0  0  0  0  0  0999 V2000
    0.7500   -6.4952    0.0000 C   0  0  0  0  0  0  0  0  0  0  0  0
   -0.7500   -6.4952    0.0000 C   0  0  0  0  0  0  0  0  0  0  0  0
   -1.5000   -7.7942    0.0000 C   0  0  0  0  0  0  0  0  0  0  0  0
   -3.0000   -7.7942    0.0000 C   0  0  0  0  0  0  0  0  0  0  0  0
   -2.7395   -9.2714    0.0000 C   0  0  0  0  0  0  0  0  0  0  0  0
   -4.4095   -8.3073    0.0000 C   0  0  0  0  0  0  0  0  0  0  0  0
   -3.7500   -6.4952    0.0000 N   0  0  0  0  0  0  0  0  0  0  0  0
   -3.0000   -5.1962    0.0000 C   0  0  0  0  0  0  0  0  0  0  0  0
   -3.7500   -3.8971    0.0000 C   0  0  0  0  0  0  0  0  0  0  0  0
   -3.0000   -2.5981    0.0000 C   0  0  0  0  0  0  0  0  0  0  0  0
   -1.5000   -2.5981    0.0000 C   0  0  0  0  0  0  0  0  0  0  0  0
   -0.7500   -3.8971    0.0000 C   0  0  0  0  0  0  0  0  0  0  0  0
   -1.5000   -5.1962    0.0000 C   0  0  0  0  0  0  0  0  0  0  0  0
    0.7500   -3.8971    0.0000 C   0  0  0  0  0  0  0  0  0  0  0  0
    1.5000   -5.1962    0.0000 C   0  0  0  0  0  0  0  0  0  0  0  0
    3.0000   -5.1962    0.0000 C   0  0  0  0  0  0  0  0  0  0  0  0
    3.7500   -6.4952    0.0000 C   0  0  0  0  0  0  0  0  0  0  0  0
    5.2500   -6.4952    0.0000 C   0  0  0  0  0  0  0  0  0  0  0  0
    6.0000   -5.1962    0.0000 C   0  0  0  0  0  0  0  0  0  0  0  0
    5.2500   -3.8971    0.0000 C   0  0  0  0  0  0  0  0  0  0  0  0
    3.7500   -3.8971    0.0000 C   0  0  0  0  0  0  0  0  0  0  0  0
    1.5000   -2.5981    0.0000 O   0  0  0  0  0  0  0  0  0  0  0  0
    0.7500   -1.2990    0.0000 C   0  0  0  0  0  0  0  0  0  0  0  0
    1.5000    0.0000    0.0000 C   0  0  0  0  0  0  0  0  0  0  0  0
    3.0000    0.0000    0.0000 F   0  0  0  0  0  0  0  0  0  0  0  0
    0.7500    1.2990    0.0000 C   0  0  0  0  0  0  0  0  0  0  0  0
   -0.7500    1.2990    0.0000 C   0  0  0  0  0  0  0  0  0  0  0  0
   -1.5000    0.0000    0.0000 C   0  0  0  0  0  0  0  0  0  0  0  0
   -0.7500   -1.2990    0.0000 C   0  0  0  0  0  0  0  0  0  0  0  0
  1  2  1  0
  2  3  2  0
  3  4  1  0
  4  5  1  0
  4  6  1  0
  4  7  1  0
  7  8  1  0
  8  9  2  0
  9 10  1  0
 10 11  2  0
 11 12  1  0
 12 13  2  0
 12 14  1  0
 14 15  2  0
 15 16  1  0
 16 17  2  0
 17 18  1  0
 18 19  2  0
 19 20  1  0
 20 21  2  0
 14 22  1  0
 22 23  1  0
 23 24  2  0
 24 25  1  0
 24 26  1  0
 26 27  2  0
 27 28  1  0
 28 29  2  0
 13  2  1  0
 21 16  1  0
 29 23  1  0
 13  8  1  0
 29 11  1  0
M  END
>  <assay_chembl_id>  (5) 
CHEMBL647746

>  <assay_description>  (5) 
Inhibition of human androgen receptor at 10e-12 to 10e-5 M

>  <parent_molecule_chembl_id>  (5) 
CHEMBL413309

>  <canonical_smiles>  (5) 
CC1=CC(C)(C)Nc2ccc3c(c21)/C(=C/c1ccccc1)Oc1c(F)cccc1-3

>  <standard_type>  (5) 
IC50

>  <standard_relation>  (5) 
=

>  <standard_value>  (5) 
900.0

>  <standard_units>  (5) 
nM

>  <target_pref_name>  (5) 
Androgen Receptor

>  <target_chembl_id>  (5) 
CHEMBL1871

>  <target_organism>  (5) 
Homo sapiens

>  <pchembl_median>  (5) 
7.21

$$$$
CHEMBL717
     RDKit          2D

 28 31  0  0  0  0  0  0  0  0999 V2000
   -6.0646   -7.8783    0.0000 C   0  0  0  0  0  0  0  0  0  0  0  0
   -6.0474   -6.8943    0.0000 C   0  0  0  0  0  0  0  0  0  0  0  0
   -7.4177   -6.2842    0.0000 O   0  0  0  0  0  0  0  0  0  0  0  0
   -4.8338   -6.0126    0.0000 O   0  0  0  0  0  0  0  0  0  0  0  0
   -3.4635   -6.6227    0.0000 C   0  0  0  0  0  0  0  0  0  0  0  0
   -4.2135   -7.9218    0.0000 C   0  0  0  0  0  0  0  0  0  0  0  0
   -3.4635   -9.2208    0.0000 C   0  0  0  0  0  0  0  0  0  0  0  0
   -5.1903   -8.0417    0.0000 O   0  0  0  0  0  0  0  0  0  0  0  0
   -2.2500   -7.5044    0.0000 C   0  0  0  0  0  0  0  0  0  0  0  0
   -1.0365   -6.6227    0.0000 C   0  0  0  0  0  0  0  0  0  0  0  0
   -1.5000   -5.1962    0.0000 C   0  0  0  0  0  0  0  0  0  0  0  0
   -0.7500   -3.8971    0.0000 C   0  0  0  0  0  0  0  0  0  0  0  0
    0.7500   -3.8971    0.0000 C   0  0  0  0  0  0  0  0  0  0  0  0
    1.5000   -2.5981    0.0000 C   0  0  0  0  0  0  0  0  0  0  0  0
    3.0000   -2.5981    0.0000 C   0  0  0  0  0  0  0  0  0  0  0  0
    0.7500   -1.2990    0.0000 C   0  0  0  0  0  0  0  0  0  0  0  0
    1.5000    0.0000    0.0000 C   0  0  0  0  0  0  0  0  0  0  0  0
    0.7500    1.2990    0.0000 C   0  0  0  0  0  0  0  0  0  0  0  0
    1.5000    2.5981    0.0000 O   0  0  0  0  0  0  0  0  0  0  0  0
   -0.7500    1.2990    0.0000 C   0  0  0  0  0  0  0  0  0  0  0  0
   -1.5000    0.0000    0.0000 C   0  0  0  0  0  0  0  0  0  0  0  0
   -0.7500   -1.2990    0.0000 C   0  0  0  0  0  0  0  0  0  0  0  0
   -2.2500   -1.2990    0.0000 C   0  0  0  0  0  0  0  0  0  0  0  0
   -1.5000   -2.5981    0.0000 C   0  0  0  0  0  0  0  0  0  0  0  0
   -3.0000   -2.5981    0.0000 C   0  0  0  0  0  0  0  0  0  0  0  0
   -3.7500   -3.8971    0.0000 C   0  0  0  0  0  0  0  0  0  0  0  0
   -3.0000   -5.1962    0.0000 C   0  0  0  0  0  0  0  0  0  0  0  0
   -4.4854   -4.9873    0.0000 C   0  0  0  0  0  0  0  0  0  0  0  0
  1  2  1  0
  2  3  2  0
  2  4  1  0
  5  4  1  1
  5  6  1  0
  6  7  1  0
  6  8  2  0
  5  9  1  0
  9 10  1  0
 11 10  1  6
 11 12  1  0
 12 13  1  1
 13 14  1  0
 14 15  1  1
 14 16  1  0
 16 17  2  0
 17 18  1  0
 18 19  2  0
 18 20  1  0
 20 21  1  0
 21 22  1  0
 22 23  1  6
 22 24  1  0
 24 25  1  6
 25 26  1  0
 26 27  1  0
 27 28  1  6
 27  5  1  0
 27 11  1  0
 24 12  1  0
 22 16  1  0
M  END
>  <assay_chembl_id>  (6) 
CHEMBL647746

>  <assay_description>  (6) 
Inhibition of human androgen receptor at 10e-12 to 10e-5 M

>  <parent_molecule_chembl_id>  (6) 
CHEMBL717

>  <canonical_smiles>  (6) 
CC(=O)O[C@]1(C(C)=O)CC[C@H]2[C@@H]3C[C@H](C)C4=CC(=O)CC[C@]4(C)[C@H]3CC[C@@]21C

>  <standard_type>  (6) 
IC50

>  <standard_relation>  (6) 
=

>  <standard_value>  (6) 
6.1

>  <standard_units>  (6) 
nM

>  <target_pref_name>  (6) 
Androgen Receptor

>  <target_chembl_id>  (6) 
CHEMBL1871

>  <target_organism>  (6) 
Homo sapiens

>  <pchembl_median>  (6) 
6.765

$$$$
CHEMBL348495
     RDKit          2D

 41 43  0  0  0  0  0  0  0  0999 V2000
    4.7302   -3.7586    0.0000 C   0  0  0  0  0  0  0  0  0  0  0  0
    3.3037   -4.2221    0.0000 C   0  0  0  0  0  0  0  0  0  0  0  0
    3.9138   -5.5924    0.0000 C   0  0  0  0  0  0  0  0  0  0  0  0
    2.9918   -2.7549    0.0000 C   0  0  0  0  0  0  0  0  0  0  0  0
    3.9955   -1.6402    0.0000 O   0  0  0  0  0  0  0  0  0  0  0  0
    1.5000   -2.5981    0.0000 N   0  0  0  0  0  0  0  0  0  0  0  0
    0.7500   -1.2990    0.0000 C   0  0  0  0  0  0  0  0  0  0  0  0
    1.5000    0.0000    0.0000 C   0  0  0  0  0  0  0  0  0  0  0  0
    0.7500    1.2990    0.0000 C   0  0  0  0  0  0  0  0  0  0  0  0
   -0.7500    1.2990    0.0000 C   0  0  0  0  0  0  0  0  0  0  0  0
   -1.5000    2.5981    0.0000 C   0  0  0  0  0  0  0  0  0  0  0  0
   -2.2500    3.8971    0.0000 N   0  0  0  0  0  0  0  0  0  0  0  0
   -1.5000    0.0000    0.0000 C   0  0  0  0  0  0  0  0  0  0  0  0
   -3.0000    0.0000    0.0000 C   0  0  0  0  0  0  0  0  0  0  0  0
   -4.5000    0.0000    0.0000 F   0  0  0  0  0  0  0  0  0  0  0  0
   -3.0000   -1.5000    0.0000 F   0  0  0  0  0  0  0  0  0  0  0  0
   -3.0000    1.5000    0.0000 F   0  0  0  0  0  0  0  0  0  0  0  0
   -0.7500   -1.2990    0.0000 C   0  0  0  0  0  0  0  0  0  0  0  0
    0.8899   -3.9684    0.0000 C   0  0  0  0  0  0  0  0  0  0  0  0
   -0.5773   -4.2803    0.0000 O   0  0  0  0  0  0  0  0  0  0  0  0
    2.0046   -4.9721    0.0000 N   0  0  0  0  0  0  0  0  0  0  0  0
    1.8478   -6.4639    0.0000 C   0  0  0  0  0  0  0  0  0  0  0  0
    0.4775   -7.0740    0.0000 C   0  0  0  0  0  0  0  0  0  0  0  0
    0.3207   -8.5658    0.0000 O   0  0  0  0  0  0  0  0  0  0  0  0
   -1.0496   -9.1759    0.0000 C   0  0  0  0  0  0  0  0  0  0  0  0
   -1.2064  -10.6676    0.0000 C   0  0  0  0  0  0  0  0  0  0  0  0
   -2.5767  -11.2778    0.0000 O   0  0  0  0  0  0  0  0  0  0  0  0
   -2.7335  -12.7695    0.0000 C   0  0  0  0  0  0  0  0  0  0  0  0
   -4.1038  -13.3796    0.0000 C   0  0  0  0  0  0  0  0  0  0  0  0
   -4.2606  -14.8714    0.0000 O   0  0  0  0  0  0  0  0  0  0  0  0
   -5.6309  -15.4815    0.0000 C   0  0  0  0  0  0  0  0  0  0  0  0
   -5.7877  -16.9733    0.0000 C   0  0  0  0  0  0  0  0  0  0  0  0
   -7.1581  -17.5834    0.0000 C   0  0  0  0  0  0  0  0  0  0  0  0
   -7.3148  -19.0752    0.0000 C   0  0  0  0  0  0  0  0  0  0  0  0
   -6.1013  -19.9569    0.0000 C   0  0  0  0  0  0  0  0  0  0  0  0
   -6.2581  -21.4487    0.0000 O   0  0  0  0  0  0  0  0  0  0  0  0
   -4.7310  -19.3468    0.0000 C   0  0  0  0  0  0  0  0  0  0  0  0
   -3.5175  -20.2285    0.0000 C   0  0  0  0  0  0  0  0  0  0  0  0
   -2.1472  -19.6183    0.0000 N   0  0  0  0  0  0  0  0  0  0  0  0
   -3.6743  -21.7202    0.0000 O   0  0  0  0  0  0  0  0  0  0  0  0
   -4.5742  -17.8550    0.0000 C   0  0  0  0  0  0  0  0  0  0  0  0
  1  2  1  0
  2  3  1  0
  2  4  1  0
  4  5  2  0
  4  6  1  0
  6  7  1  0
  7  8  2  0
  8  9  1  0
  9 10  2  0
 10 11  1  0
 11 12  3  0
 10 13  1  0
 13 14  1  0
 14 15  1  0
 14 16  1  0
 14 17  1  0
 13 18  2  0
  6 19  1  0
 19 20  2  0
 19 21  1  0
 21 22  1  0
 22 23  1  0
 23 24  1  0
 24 25  1  0
 25 26  1  0
 26 27  1  0
 27 28  1  0
 28 29  1  0
 29 30  1  0
 30 31  1  0
 31 32  1  0
 32 33  2  0
 33 34  1  0
 34 35  2  0
 35 36  1  0
 35 37  1  0
 37 38  1  0
 38 39  1  0
 38 40  2  0
 37 41  2  0
 21  2  1  0
 41 32  1  0
 18  7  1  0
M  END
>  <assay_chembl_id>  (7) 
CHEMBL647749

>  <assay_description>  (7) 
Inhibition of 1.0 nM [3H]mibolerone binding to human androgen receptor of PC3/AR cell lysate

>  <parent_molecule_chembl_id>  (7) 
CHEMBL348495

>  <canonical_smiles>  (7) 
CC1(C)C(=O)N(c2ccc(C#N)c(C(F)(F)F)c2)C(=O)N1CCOCCOCCOCc1ccc(O)c(C(N)=O)c1

>  <standard_type>  (7) 
IC50

>  <standard_relation>  (7) 
=

>  <standard_value>  (7) 
332.0

>  <standard_units>  (7) 
nM

>  <target_pref_name>  (7) 
Androgen Receptor

>  <target_chembl_id>  (7) 
CHEMBL1871

>  <target_organism>  (7) 
Homo sapiens

>  <pchembl_median>  (7) 
7.06

$$$$
CHEMBL336169
     RDKit          2D

 28 32  0  0  0  0  0  0  0  0999 V2000
    0.7500   -6.4952    0.0000 C   0  0  0  0  0  0  0  0  0  0  0  0
   -0.7500   -6.4952    0.0000 C   0  0  0  0  0  0  0  0  0  0  0  0
   -1.5000   -7.7942    0.0000 C   0  0  0  0  0  0  0  0  0  0  0  0
   -3.0000   -7.7942    0.0000 C   0  0  0  0  0  0  0  0  0  0  0  0
   -2.7395   -9.2714    0.0000 C   0  0  0  0  0  0  0  0  0  0  0  0
   -4.4095   -8.3073    0.0000 C   0  0  0  0  0  0  0  0  0  0  0  0
   -3.7500   -6.4952    0.0000 N   0  0  0  0  0  0  0  0  0  0  0  0
   -3.0000   -5.1962    0.0000 C   0  0  0  0  0  0  0  0  0  0  0  0
   -3.7500   -3.8971    0.0000 C   0  0  0  0  0  0  0  0  0  0  0  0
   -3.0000   -2.5981    0.0000 C   0  0  0  0  0  0  0  0  0  0  0  0
   -1.5000   -2.5981    0.0000 C   0  0  0  0  0  0  0  0  0  0  0  0
   -0.7500   -3.8971    0.0000 C   0  0  0  0  0  0  0  0  0  0  0  0
   -1.5000   -5.1962    0.0000 C   0  0  0  0  0  0  0  0  0  0  0  0
    0.7500   -3.8971    0.0000 C   0  0  0  0  0  0  0  0  0  0  0  0
    1.5000   -5.1962    0.0000 C   0  0  0  0  0  0  0  0  0  0  0  0
    3.0000   -5.1962    0.0000 C   0  0  0  0  0  0  0  0  0  0  0  0
    3.8817   -3.9826    0.0000 C   0  0  0  0  0  0  0  0  0  0  0  0
    5.3083   -4.4462    0.0000 C   0  0  0  0  0  0  0  0  0  0  0  0
    5.3083   -5.9462    0.0000 C   0  0  0  0  0  0  0  0  0  0  0  0
    3.8817   -6.4097    0.0000 O   0  0  0  0  0  0  0  0  0  0  0  0
    1.5000   -2.5981    0.0000 O   0  0  0  0  0  0  0  0  0  0  0  0
    0.7500   -1.2990    0.0000 C   0  0  0  0  0  0  0  0  0  0  0  0
    1.5000    0.0000    0.0000 C   0  0  0  0  0  0  0  0  0  0  0  0
    0.7500    1.2990    0.0000 C   0  0  0  0  0  0  0  0  0  0  0  0
   -0.7500    1.2990    0.0000 C   0  0  0  0  0  0  0  0  0  0  0  0
   -1.5000    2.5981    0.0000 F   0  0  0  0  0  0  0  0  0  0  0  0
   -1.5000    0.0000    0.0000 C   0  0  0  0  0  0  0  0  0  0  0  0
   -0.7500   -1.2990    0.0000 C   0  0  0  0  0  0  0  0  0  0  0  0
  1  2  1  0
  2  3  2  0
  3  4  1  0
  4  5  1  0
  4  6  1  0
  4  7  1  0
  7  8  1  0
  8  9  2  0
  9 10  1  0
 10 11  2  0
 11 12  1  0
 12 13  2  0
 12 14  1  0
 14 15  2  0
 15 16  1  0
 16 17  2  0
 17 18  1  0
 18 19  2  0
 19 20  1  0
 14 21  1  0
 21 22  1  0
 22 23  2  0
 23 24  1  0
 24 25  2  0
 25 26  1  0
 25 27  1  0
 27 28  2  0
 13  2  1  0
 20 16  1  0
 28 22  1  0
 13  8  1  0
 28 11  1  0
M  END
>  <assay_chembl_id>  (8) 
CHEMBL647746

>  <assay_description>  (8) 
Inhibition of human androgen receptor at 10e-12 to 10e-5 M

>  <parent_molecule_chembl_id>  (8) 
CHEMBL336169

>  <canonical_smiles>  (8) 
CC1=CC(C)(C)Nc2ccc3c(c21)/C(=C/c1ccco1)Oc1ccc(F)cc1-3

>  <standard_type>  (8) 
IC50

>  <standard_relation>  (8) 
=

>  <standard_value>  (8) 
258.0

>  <standard_units>  (8) 
nM

>  <target_pref_name>  (8) 
Androgen Receptor

>  <target_chembl_id>  (8) 
CHEMBL1871

>  <target_organism>  (8) 
Homo sapiens

>  <pchembl_median>  (8) 
6.85

$$$$
CHEMBL103
     RDKit          2D

 23 26  0  0  0  0  0  0  0  0999 V2000
   -5.2020   -8.5535    0.0000 C   0  0  0  0  0  0  0  0  0  0  0  0
   -4.8901   -7.0863    0.0000 C   0  0  0  0  0  0  0  0  0  0  0  0
   -6.0048   -6.0826    0.0000 O   0  0  0  0  0  0  0  0  0  0  0  0
   -3.4635   -6.6227    0.0000 C   0  0  0  0  0  0  0  0  0  0  0  0
   -2.2500   -7.5044    0.0000 C   0  0  0  0  0  0  0  0  0  0  0  0
   -1.0365   -6.6227    0.0000 C   0  0  0  0  0  0  0  0  0  0  0  0
   -1.5000   -5.1962    0.0000 C   0  0  0  0  0  0  0  0  0  0  0  0
   -0.7500   -3.8971    0.0000 C   0  0  0  0  0  0  0  0  0  0  0  0
    0.7500   -3.8971    0.0000 C   0  0  0  0  0  0  0  0  0  0  0  0
    1.5000   -2.5981    0.0000 C   0  0  0  0  0  0  0  0  0  0  0  0
    0.7500   -1.2990    0.0000 C   0  0  0  0  0  0  0  0  0  0  0  0
    1.5000    0.0000    0.0000 C   0  0  0  0  0  0  0  0  0  0  0  0
    0.7500    1.2990    0.0000 C   0  0  0  0  0  0  0  0  0  0  0  0
    1.5000    2.5981    0.0000 O   0  0  0  0  0  0  0  0  0  0  0  0
   -0.7500    1.2990    0.0000 C   0  0  0  0  0  0  0  0  0  0  0  0
   -1.5000    0.0000    0.0000 C   0  0  0  0  0  0  0  0  0  0  0  0
   -0.7500   -1.2990    0.0000 C   0  0  0  0  0  0  0  0  0  0  0  0
   -2.2500   -1.2990    0.0000 C   0  0  0  0  0  0  0  0  0  0  0  0
   -1.5000   -2.5981    0.0000 C   0  0  0  0  0  0  0  0  0  0  0  0
   -3.0000   -2.5981    0.0000 C   0  0  0  0  0  0  0  0  0  0  0  0
   -3.7500   -3.8971    0.0000 C   0  0  0  0  0  0  0  0  0  0  0  0
   -3.0000   -5.1962    0.0000 C   0  0  0  0  0  0  0  0  0  0  0  0
   -4.4918   -5.3529    0.0000 C   0  0  0  0  0  0  0  0  0  0  0  0
  1  2  1  0
  2  3  2  0
  4  2  1  6
  4  5  1  0
  5  6  1  0
  7  6  1  6
  7  8  1  0
  8  9  1  1
  9 10  1  0
 10 11  1  0
 11 12  2  0
 12 13  1  0
 13 14  2  0
 13 15  1  0
 15 16  1  0
 16 17  1  0
 17 18  1  6
 17 19  1  0
 19 20  1  6
 20 21  1  0
 21 22  1  0
 22 23  1  6
 22  4  1  0
 22  7  1  0
 19  8  1  0
 17 11  1  0
M  END
>  <assay_chembl_id>  (9) 
CHEMBL647746

>  <assay_description>  (9) 
Inhibition of human androgen receptor at 10e-12 to 10e-5 M

>  <parent_molecule_chembl_id>  (9) 
CHEMBL103

>  <canonical_smiles>  (9) 
CC(=O)[C@H]1CC[C@H]2[C@@H]3CCC4=CC(=O)CC[C@]4(C)[C@H]3CC[C@]12C

>  <standard_type>  (9) 
IC50

>  <standard_relation>  (9) 
=

>  <standard_value>  (9) 
37.0

>  <standard_units>  (9) 
nM

>  <target_pref_name>  (9) 
Androgen Receptor

>  <target_chembl_id>  (9) 
CHEMBL1871

>  <target_organism>  (9) 
Homo sapiens

>  <pchembl_median>  (9) 
6.1

$$$$
CHEMBL134602
     RDKit          2D

 29 33  0  0  0  0  0  0  0  0999 V2000
    0.7500   -6.4952    0.0000 C   0  0  0  0  0  0  0  0  0  0  0  0
   -0.7500   -6.4952    0.0000 C   0  0  0  0  0  0  0  0  0  0  0  0
   -1.5000   -7.7942    0.0000 C   0  0  0  0  0  0  0  0  0  0  0  0
   -3.0000   -7.7942    0.0000 C   0  0  0  0  0  0  0  0  0  0  0  0
   -2.7395   -9.2714    0.0000 C   0  0  0  0  0  0  0  0  0  0  0  0
   -4.4095   -8.3073    0.0000 C   0  0  0  0  0  0  0  0  0  0  0  0
   -3.7500   -6.4952    0.0000 N   0  0  0  0  0  0  0  0  0  0  0  0
   -3.0000   -5.1962    0.0000 C   0  0  0  0  0  0  0  0  0  0  0  0
   -3.7500   -3.8971    0.0000 C   0  0  0  0  0  0  0  0  0  0  0  0
   -3.0000   -2.5981    0.0000 C   0  0  0  0  0  0  0  0  0  0  0  0
   -1.5000   -2.5981    0.0000 C   0  0  0  0  0  0  0  0  0  0  0  0
   -0.7500   -3.8971    0.0000 C   0  0  0  0  0  0  0  0  0  0  0  0
   -1.5000   -5.1962    0.0000 C   0  0  0  0  0  0  0  0  0  0  0  0
    0.7500   -3.8971    0.0000 C   0  0  0  0  0  0  0  0  0  0  0  0
    1.5000   -5.1962    0.0000 C   0  0  0  0  0  0  0  0  0  0  0  0
    3.0000   -5.1962    0.0000 C   0  0  0  0  0  0  0  0  0  0  0  0
    3.7500   -6.4952    0.0000 C   0  0  0  0  0  0  0  0  0  0  0  0
    5.2500   -6.4952    0.0000 C   0  0  0  0  0  0  0  0  0  0  0  0
    6.0000   -5.1962    0.0000 C   0  0  0  0  0  0  0  0  0  0  0  0
    5.2500   -3.8971    0.0000 C   0  0  0  0  0  0  0  0  0  0  0  0
    3.7500   -3.8971    0.0000 C   0  0  0  0  0  0  0  0  0  0  0  0
    1.5000   -2.5981    0.0000 O   0  0  0  0  0  0  0  0  0  0  0  0
    0.7500   -1.2990    0.0000 C   0  0  0  0  0  0  0  0  0  0  0  0
    1.5000    0.0000    0.0000 C   0  0  0  0  0  0  0  0  0  0  0  0
    0.7500    1.2990    0.0000 C   0  0  0  0  0  0  0  0  0  0  0  0
   -0.7500    1.2990    0.0000 C   0  0  0  0  0  0  0  0  0  0  0  0
   -1.5000    2.5981    0.0000 F   0  0  0  0  0  0  0  0  0  0  0  0
   -1.5000    0.0000    0.0000 C   0  0  0  0  0  0  0  0  0  0  0  0
   -0.7500   -1.2990    0.0000 C   0  0  0  0  0  0  0  0  0  0  0  0
  1  2  1  0
  2  3  2  0
  3  4  1  0
  4  5  1  0
  4  6  1  0
  4  7  1  0
  7  8  1  0
  8  9  2  0
  9 10  1  0
 10 11  2  0
 11 12  1  0
 12 13  2  0
 12 14  1  0
 14 15  2  0
 15 16  1  0
 16 17  2  0
 17 18  1  0
 18 19  2  0
 19 20  1  0
 20 21  2  0
 14 22  1  0
 22 23  1  0
 23 24  2  0
 24 25  1  0
 25 26  2  0
 26 27  1  0
 26 28  1  0
 28 29  2  0
 13  2  1  0
 21 16  1  0
 29 23  1  0
 13  8  1  0
 29 11  1  0
M  END
>  <assay_chembl_id>  (10) 
CHEMBL647746

>  <assay_description>  (10) 
Inhibition of human androgen receptor at 10e-12 to 10e-5 M

>  <parent_molecule_chembl_id>  (10) 
CHEMBL134602

>  <canonical_smiles>  (10) 
CC1=CC(C)(C)Nc2ccc3c(c21)/C(=C/c1ccccc1)Oc1ccc(F)cc1-3

>  <standard_type>  (10) 
IC50

>  <standard_relation>  (10) 
=

>  <standard_value>  (10) 
640.0

>  <standard_units>  (10) 
nM

>  <target_pref_name>  (10) 
Androgen Receptor

>  <target_chembl_id>  (10) 
CHEMBL1871

>  <target_organism>  (10) 
Homo sapiens

>  <pchembl_median>  (10) 
6.58

$$$$
CHEMBL151601
     RDKit          2D

 37 39  0  0  0  0  0  0  0  0999 V2000
    4.7302   -3.7586    0.0000 C   0  0  0  0  0  0  0  0  0  0  0  0
    3.3037   -4.2221    0.0000 C   0  0  0  0  0  0  0  0  0  0  0  0
    3.9138   -5.5924    0.0000 C   0  0  0  0  0  0  0  0  0  0  0  0
    2.9918   -2.7549    0.0000 C   0  0  0  0  0  0  0  0  0  0  0  0
    3.9955   -1.6402    0.0000 O   0  0  0  0  0  0  0  0  0  0  0  0
    1.5000   -2.5981    0.0000 N   0  0  0  0  0  0  0  0  0  0  0  0
    0.7500   -1.2990    0.0000 C   0  0  0  0  0  0  0  0  0  0  0  0
    1.5000    0.0000    0.0000 C   0  0  0  0  0  0  0  0  0  0  0  0
    0.7500    1.2990    0.0000 C   0  0  0  0  0  0  0  0  0  0  0  0
   -0.7500    1.2990    0.0000 C   0  0  0  0  0  0  0  0  0  0  0  0
   -1.5000    2.5981    0.0000 C   0  0  0  0  0  0  0  0  0  0  0  0
   -2.2500    3.8971    0.0000 N   0  0  0  0  0  0  0  0  0  0  0  0
   -1.5000    0.0000    0.0000 C   0  0  0  0  0  0  0  0  0  0  0  0
   -3.0000    0.0000    0.0000 C   0  0  0  0  0  0  0  0  0  0  0  0
   -4.5000    0.0000    0.0000 F   0  0  0  0  0  0  0  0  0  0  0  0
   -3.0000   -1.5000    0.0000 F   0  0  0  0  0  0  0  0  0  0  0  0
   -3.0000    1.5000    0.0000 F   0  0  0  0  0  0  0  0  0  0  0  0
   -0.7500   -1.2990    0.0000 C   0  0  0  0  0  0  0  0  0  0  0  0
    0.8899   -3.9684    0.0000 C   0  0  0  0  0  0  0  0  0  0  0  0
   -0.5773   -4.2803    0.0000 O   0  0  0  0  0  0  0  0  0  0  0  0
    2.0046   -4.9721    0.0000 N   0  0  0  0  0  0  0  0  0  0  0  0
    1.8478   -6.4639    0.0000 C   0  0  0  0  0  0  0  0  0  0  0  0
    0.4775   -7.0740    0.0000 C   0  0  0  0  0  0  0  0  0  0  0  0
   -0.8928   -7.6841    0.0000 C   0  0  0  0  0  0  0  0  0  0  0  0
   -2.2631   -8.2942    0.0000 C   0  0  0  0  0  0  0  0  0  0  0  0
   -2.4199   -9.7860    0.0000 O   0  0  0  0  0  0  0  0  0  0  0  0
   -3.7902  -10.3961    0.0000 C   0  0  0  0  0  0  0  0  0  0  0  0
   -3.9470  -11.8879    0.0000 C   0  0  0  0  0  0  0  0  0  0  0  0
   -5.3174  -12.4980    0.0000 C   0  0  0  0  0  0  0  0  0  0  0  0
   -5.4741  -13.9897    0.0000 C   0  0  0  0  0  0  0  0  0  0  0  0
   -4.2606  -14.8714    0.0000 C   0  0  0  0  0  0  0  0  0  0  0  0
   -4.4174  -16.3632    0.0000 O   0  0  0  0  0  0  0  0  0  0  0  0
   -2.8903  -14.2613    0.0000 C   0  0  0  0  0  0  0  0  0  0  0  0
   -1.6768  -15.1430    0.0000 C   0  0  0  0  0  0  0  0  0  0  0  0
   -0.3065  -14.5329    0.0000 N   0  0  0  0  0  0  0  0  0  0  0  0
   -1.8336  -16.6348    0.0000 O   0  0  0  0  0  0  0  0  0  0  0  0
   -2.7335  -12.7695    0.0000 C   0  0  0  0  0  0  0  0  0  0  0  0
  1  2  1  0
  2  3  1  0
  2  4  1  0
  4  5  2  0
  4  6  1  0
  6  7  1  0
  7  8  2  0
  8  9  1  0
  9 10  2  0
 10 11  1  0
 11 12  3  0
 10 13  1  0
 13 14  1  0
 14 15  1  0
 14 16  1  0
 14 17  1  0
 13 18  2  0
  6 19  1  0
 19 20  2  0
 19 21  1  0
 21 22  1  0
 22 23  1  0
 23 24  3  0
 24 25  1  0
 25 26  1  0
 26 27  1  0
 27 28  1  0
 28 29  2  0
 29 30  1  0
 30 31  2  0
 31 32  1  0
 31 33  1  0
 33 34  1  0
 34 35  1  0
 34 36  2  0
 33 37  2  0
 21  2  1  0
 37 28  1  0
 18  7  1  0
M  END
>  <assay_chembl_id>  (11) 
CHEMBL647749

>  <assay_description>  (11) 
Inhibition of 1.0 nM [3H]mibolerone binding to human androgen receptor of PC3/AR cell lysate

>  <parent_molecule_chembl_id>  (11) 
CHEMBL151601

>  <canonical_smiles>  (11) 
CC1(C)C(=O)N(c2ccc(C#N)c(C(F)(F)F)c2)C(=O)N1CC#CCOCc1ccc(O)c(C(N)=O)c1

>  <standard_type>  (11) 
IC50

>  <standard_relation>  (11) 
=

>  <standard_value>  (11) 
49.0

>  <standard_units>  (11) 
nM

>  <target_pref_name>  (11) 
Androgen Receptor

>  <target_chembl_id>  (11) 
CHEMBL1871

>  <target_organism>  (11) 
Homo sapiens

>  <pchembl_median>  (11) 
6.8

$$$$
CHEMBL132363
     RDKit          2D

 30 34  0  0  0  0  0  0  0  0999 V2000
    0.7500   -6.4952    0.0000 C   0  0  0  0  0  0  0  0  0  0  0  0
   -0.7500   -6.4952    0.0000 C   0  0  0  0  0  0  0  0  0  0  0  0
   -1.5000   -7.7942    0.0000 C   0  0  0  0  0  0  0  0  0  0  0  0
   -3.0000   -7.7942    0.0000 C   0  0  0  0  0  0  0  0  0  0  0  0
   -2.7395   -9.2714    0.0000 C   0  0  0  0  0  0  0  0  0  0  0  0
   -4.4095   -8.3073    0.0000 C   0  0  0  0  0  0  0  0  0  0  0  0
   -3.7500   -6.4952    0.0000 N   0  0  0  0  0  0  0  0  0  0  0  0
   -3.0000   -5.1962    0.0000 C   0  0  0  0  0  0  0  0  0  0  0  0
   -3.7500   -3.8971    0.0000 C   0  0  0  0  0  0  0  0  0  0  0  0
   -3.0000   -2.5981    0.0000 C   0  0  0  0  0  0  0  0  0  0  0  0
   -1.5000   -2.5981    0.0000 C   0  0  0  0  0  0  0  0  0  0  0  0
   -0.7500   -3.8971    0.0000 C   0  0  0  0  0  0  0  0  0  0  0  0
   -1.5000   -5.1962    0.0000 C   0  0  0  0  0  0  0  0  0  0  0  0
    0.7500   -3.8971    0.0000 C   0  0  0  0  0  0  0  0  0  0  0  0
    1.5000   -5.1962    0.0000 C   0  0  0  0  0  0  0  0  0  0  0  0
    3.0000   -5.1962    0.0000 C   0  0  0  0  0  0  0  0  0  0  0  0
    3.7500   -6.4952    0.0000 N   0  0  0  0  0  0  0  0  0  0  0  0
    5.2500   -6.4952    0.0000 C   0  0  0  0  0  0  0  0  0  0  0  0
    6.0000   -5.1962    0.0000 C   0  0  0  0  0  0  0  0  0  0  0  0
    5.2500   -3.8971    0.0000 C   0  0  0  0  0  0  0  0  0  0  0  0
    3.7500   -3.8971    0.0000 C   0  0  0  0  0  0  0  0  0  0  0  0
    3.0000   -2.5981    0.0000 C   0  0  0  0  0  0  0  0  0  0  0  0
    1.5000   -2.5981    0.0000 O   0  0  0  0  0  0  0  0  0  0  0  0
    0.7500   -1.2990    0.0000 C   0  0  0  0  0  0  0  0  0  0  0  0
    1.5000    0.0000    0.0000 C   0  0  0  0  0  0  0  0  0  0  0  0
    0.7500    1.2990    0.0000 C   0  0  0  0  0  0  0  0  0  0  0  0
   -0.7500    1.2990    0.0000 C   0  0  0  0  0  0  0  0  0  0  0  0
   -1.5000    2.5981    0.0000 F   0  0  0  0  0  0  0  0  0  0  0  0
   -1.5000    0.0000    0.0000 C   0  0  0  0  0  0  0  0  0  0  0  0
   -0.7500   -1.2990    0.0000 C   0  0  0  0  0  0  0  0  0  0  0  0
  1  2  1  0
  2  3  2  0
  3  4  1  0
  4  5  1  0
  4  6  1  0
  4  7  1  0
  7  8  1  0
  8  9  2  0
  9 10  1  0
 10 11  2  0
 11 12  1  0
 12 13  2  0
 12 14  1  0
 14 15  2  0
 15 16  1  0
 16 17  2  0
 17 18  1  0
 18 19  2  0
 19 20  1  0
 20 21  2  0
 21 22  1  0
 14 23  1  0
 23 24  1  0
 24 25  2  0
 25 26  1  0
 26 27  2  0
 27 28  1  0
 27 29  1  0
 29 30  2  0
 13  2  1  0
 21 16  1  0
 30 24  1  0
 13  8  1  0
 30 11  1  0
M  END
>  <assay_chembl_id>  (12) 
CHEMBL647746

>  <assay_description>  (12) 
Inhibition of human androgen receptor at 10e-12 to 10e-5 M

>  <parent_molecule_chembl_id>  (12) 
CHEMBL132363

>  <canonical_smiles>  (12) 
CC1=CC(C)(C)Nc2ccc3c(c21)/C(=C/c1ncccc1C)Oc1ccc(F)cc1-3

>  <standard_type>  (12) 
IC50

>  <standard_relation>  (12) 
=

>  <standard_value>  (12) 
203.0

>  <standard_units>  (12) 
nM

>  <target_pref_name>  (12) 
Androgen Receptor

>  <target_chembl_id>  (12) 
CHEMBL1871

>  <target_organism>  (12) 
Homo sapiens

>  <pchembl_median>  (12) 
6.77

$$$$
CHEMBL336736
     RDKit          2D

 30 34  0  0  0  0  0  0  0  0999 V2000
    0.7500   -6.4952    0.0000 C   0  0  0  0  0  0  0  0  0  0  0  0
   -0.7500   -6.4952    0.0000 C   0  0  0  0  0  0  0  0  0  0  0  0
   -1.5000   -7.7942    0.0000 C   0  0  0  0  0  0  0  0  0  0  0  0
   -3.0000   -7.7942    0.0000 C   0  0  0  0  0  0  0  0  0  0  0  0
   -2.7395   -9.2714    0.0000 C   0  0  0  0  0  0  0  0  0  0  0  0
   -4.4095   -8.3073    0.0000 C   0  0  0  0  0  0  0  0  0  0  0  0
   -3.7500   -6.4952    0.0000 N   0  0  0  0  0  0  0  0  0  0  0  0
   -3.0000   -5.1962    0.0000 C   0  0  0  0  0  0  0  0  0  0  0  0
   -3.7500   -3.8971    0.0000 C   0  0  0  0  0  0  0  0  0  0  0  0
   -3.0000   -2.5981    0.0000 C   0  0  0  0  0  0  0  0  0  0  0  0
   -1.5000   -2.5981    0.0000 C   0  0  0  0  0  0  0  0  0  0  0  0
   -0.7500   -3.8971    0.0000 C   0  0  0  0  0  0  0  0  0  0  0  0
   -1.5000   -5.1962    0.0000 C   0  0  0  0  0  0  0  0  0  0  0  0
    0.7500   -3.8971    0.0000 C   0  0  0  0  0  0  0  0  0  0  0  0
    1.5000   -5.1962    0.0000 C   0  0  0  0  0  0  0  0  0  0  0  0
    3.0000   -5.1962    0.0000 C   0  0  0  0  0  0  0  0  0  0  0  0
    3.7500   -6.4952    0.0000 C   0  0  0  0  0  0  0  0  0  0  0  0
    5.2500   -6.4952    0.0000 C   0  0  0  0  0  0  0  0  0  0  0  0
    6.0000   -5.1962    0.0000 C   0  0  0  0  0  0  0  0  0  0  0  0
    5.2500   -3.8971    0.0000 C   0  0  0  0  0  0  0  0  0  0  0  0
    3.7500   -3.8971    0.0000 C   0  0  0  0  0  0  0  0  0  0  0  0
    3.0000   -2.5981    0.0000 C   0  0  0  0  0  0  0  0  0  0  0  0
    1.5000   -2.5981    0.0000 O   0  0  0  0  0  0  0  0  0  0  0  0
    0.7500   -1.2990    0.0000 C   0  0  0  0  0  0  0  0  0  0  0  0
    1.5000    0.0000    0.0000 C   0  0  0  0  0  0  0  0  0  0  0  0
    0.7500    1.2990    0.0000 C   0  0  0  0  0  0  0  0  0  0  0  0
   -0.7500    1.2990    0.0000 C   0  0  0  0  0  0  0  0  0  0  0  0
   -1.5000    2.5981    0.0000 F   0  0  0  0  0  0  0  0  0  0  0  0
   -1.5000    0.0000    0.0000 C   0  0  0  0  0  0  0  0  0  0  0  0
   -0.7500   -1.2990    0.0000 C   0  0  0  0  0  0  0  0  0  0  0  0
  1  2  1  0
  2  3  2  0
  3  4  1  0
  4  5  1  0
  4  6  1  0
  4  7  1  0
  7  8  1  0
  8  9  2  0
  9 10  1  0
 10 11  2  0
 11 12  1  0
 12 13  2  0
 12 14  1  0
 14 15  2  0
 15 16  1  0
 16 17  2  0
 17 18  1  0
 18 19  2  0
 19 20  1  0
 20 21  2  0
 21 22  1  0
 14 23  1  0
 23 24  1  0
 24 25  2  0
 25 26  1  0
 26 27  2  0
 27 28  1  0
 27 29  1  0
 29 30  2  0
 13  2  1  0
 21 16  1  0
 30 24  1  0
 13  8  1  0
 30 11  1  0
M  END
>  <assay_chembl_id>  (13) 
CHEMBL647746

>  <assay_description>  (13) 
Inhibition of human androgen receptor at 10e-12 to 10e-5 M

>  <parent_molecule_chembl_id>  (13) 
CHEMBL336736

>  <canonical_smiles>  (13) 
CC1=CC(C)(C)Nc2ccc3c(c21)/C(=C/c1ccccc1C)Oc1ccc(F)cc1-3

>  <standard_type>  (13) 
IC50

>  <standard_relation>  (13) 
=

>  <standard_value>  (13) 
820.0

>  <standard_units>  (13) 
nM

>  <target_pref_name>  (13) 
Androgen Receptor

>  <target_chembl_id>  (13) 
CHEMBL1871

>  <target_organism>  (13) 
Homo sapiens

>  <pchembl_median>  (13) 
6.12

$$$$
CHEMBL1276308
     RDKit          2D

 32 36  0  0  0  0  0  0  0  0999 V2000
   -5.7135  -10.5199    0.0000 C   0  0  0  0  0  0  0  0  0  0  0  0
   -4.9635   -9.2208    0.0000 C   0  0  0  0  0  0  0  0  0  0  0  0
   -4.2135   -7.9218    0.0000 C   0  0  0  0  0  0  0  0  0  0  0  0
   -3.4635   -6.6227    0.0000 C   0  0  0  0  0  0  0  0  0  0  0  0
   -4.8980   -6.1842    0.0000 O   0  0  0  0  0  0  0  0  0  0  0  0
   -2.2500   -7.5044    0.0000 C   0  0  0  0  0  0  0  0  0  0  0  0
   -1.0365   -6.6227    0.0000 C   0  0  0  0  0  0  0  0  0  0  0  0
   -1.5000   -5.1962    0.0000 C   0  0  0  0  0  0  0  0  0  0  0  0
   -0.7500   -3.8971    0.0000 C   0  0  0  0  0  0  0  0  0  0  0  0
    0.7500   -3.8971    0.0000 C   0  0  0  0  0  0  0  0  0  0  0  0
    1.5000   -2.5981    0.0000 C   0  0  0  0  0  0  0  0  0  0  0  0
    0.7500   -1.2990    0.0000 C   0  0  0  0  0  0  0  0  0  0  0  0
    1.5000    0.0000    0.0000 C   0  0  0  0  0  0  0  0  0  0  0  0
    0.7500    1.2990    0.0000 C   0  0  0  0  0  0  0  0  0  0  0  0
    1.5000    2.5981    0.0000 O   0  0  0  0  0  0  0  0  0  0  0  0
   -0.7500    1.2990    0.0000 C   0  0  0  0  0  0  0  0  0  0  0  0
   -1.5000    0.0000    0.0000 C   0  0  0  0  0  0  0  0  0  0  0  0
   -0.7500   -1.2990    0.0000 C   0  0  0  0  0  0  0  0  0  0  0  0
   -1.5000   -2.5981    0.0000 C   0  0  0  0  0  0  0  0  0  0  0  0
   -3.0000   -2.5981    0.0000 C   0  0  0  0  0  0  0  0  0  0  0  0
   -3.7500   -1.2990    0.0000 C   0  0  0  0  0  0  0  0  0  0  0  0
   -3.0000    0.0000    0.0000 C   0  0  0  0  0  0  0  0  0  0  0  0
   -3.7500    1.2990    0.0000 C   0  0  0  0  0  0  0  0  0  0  0  0
   -5.2500    1.2990    0.0000 C   0  0  0  0  0  0  0  0  0  0  0  0
   -6.0000    2.5981    0.0000 N   0  0  0  0  0  0  0  0  0  0  0  0
   -5.2500    3.8971    0.0000 C   0  0  0  0  0  0  0  0  0  0  0  0
   -7.5000    2.5981    0.0000 C   0  0  0  0  0  0  0  0  0  0  0  0
   -6.0000    0.0000    0.0000 C   0  0  0  0  0  0  0  0  0  0  0  0
   -5.2500   -1.2990    0.0000 C   0  0  0  0  0  0  0  0  0  0  0  0
   -3.7500   -3.8971    0.0000 C   0  0  0  0  0  0  0  0  0  0  0  0
   -3.0000   -5.1962    0.0000 C   0  0  0  0  0  0  0  0  0  0  0  0
   -4.4998   -5.1699    0.0000 C   0  0  0  0  0  0  0  0  0  0  0  0
  1  2  1  0
  2  3  3  0
  3  4  1  0
  4  5  1  6
  4  6  1  0
  6  7  1  0
  8  7  1  6
  8  9  1  0
  9 10  1  1
 10 11  1  0
 11 12  1  0
 12 13  2  0
 13 14  1  0
 14 15  2  0
 14 16  1  0
 16 17  1  0
 17 18  1  0
 18 19  2  0
 19 20  1  0
 20 21  1  6
 21 22  2  0
 22 23  1  0
 23 24  2  0
 24 25  1  0
 25 26  1  0
 25 27  1  0
 24 28  1  0
 28 29  2  0
 20 30  1  0
 30 31  1  0
 31 32  1  6
 31  4  1  0
 31  8  1  0
 19  9  1  0
 29 21  1  0
 18 12  1  0
M  END
>  <assay_chembl_id>  (14) 
CHEMBL648076

>  <assay_description>  (14) 
Displacement of [3H]mibolerone from human Androgen receptor

>  <parent_molecule_chembl_id>  (14) 
CHEMBL1276308

>  <canonical_smiles>  (14) 
CC#C[C@]1(O)CC[C@H]2[C@@H]3CCC4=CC(=O)CCC4=C3[C@@H](c3ccc(N(C)C)cc3)C[C@@]21C

>  <standard_type>  (14) 
IC50

>  <standard_relation>  (14) 
=

>  <standard_value>  (14) 
89.0

>  <standard_units>  (14) 
nM

>  <target_pref_name>  (14) 
Androgen Receptor

>  <target_chembl_id>  (14) 
CHEMBL1871

>  <target_organism>  (14) 
Homo sapiens

>  <pchembl_median>  (14) 
6.23

$$$$
CHEMBL65021
     RDKit          2D

 27 30  0  0  0  0  0  0  0  0999 V2000
    3.7500   -1.2990    0.0000 C   0  0  0  0  0  0  0  0  0  0  0  0
    3.0000    0.0000    0.0000 O   0  0  0  0  0  0  0  0  0  0  0  0
    1.5000    0.0000    0.0000 C   0  0  0  0  0  0  0  0  0  0  0  0
    0.7500   -1.2990    0.0000 C   0  0  0  0  0  0  0  0  0  0  0  0
   -0.7500   -1.2990    0.0000 C   0  0  0  0  0  0  0  0  0  0  0  0
   -1.5000    0.0000    0.0000 C   0  0  0  0  0  0  0  0  0  0  0  0
   -0.7500    1.2990    0.0000 C   0  0  0  0  0  0  0  0  0  0  0  0
    0.7500    1.2990    0.0000 C   0  0  0  0  0  0  0  0  0  0  0  0
    1.5000    2.5981    0.0000 C   0  0  0  0  0  0  0  0  0  0  0  0
    3.0000    2.5981    0.0000 C   0  0  0  0  0  0  0  0  0  0  0  0
    3.7500    3.8971    0.0000 C   0  0  0  0  0  0  0  0  0  0  0  0
    3.0000    5.1962    0.0000 C   0  0  0  0  0  0  0  0  0  0  0  0
    3.7500    6.4952    0.0000 N   0  0  0  0  0  0  0  0  0  0  0  0
    5.2500    6.4952    0.0000 S   0  0  0  0  0  0  0  0  0  0  0  0
    6.7500    6.4952    0.0000 C   0  0  0  0  0  0  0  0  0  0  0  0
    5.2500    4.9952    0.0000 O   0  0  0  0  0  0  0  0  0  0  0  0
    5.2500    7.9952    0.0000 O   0  0  0  0  0  0  0  0  0  0  0  0
    1.5000    5.1962    0.0000 C   0  0  0  0  0  0  0  0  0  0  0  0
    0.7500    3.8971    0.0000 C   0  0  0  0  0  0  0  0  0  0  0  0
   -0.7500    3.8971    0.0000 C   0  0  0  0  0  0  0  0  0  0  0  0
   -1.5000    5.1962    0.0000 C   0  0  0  0  0  0  0  0  0  0  0  0
   -0.7500    6.4952    0.0000 C   0  0  0  0  0  0  0  0  0  0  0  0
   -1.5000    7.7942    0.0000 C   0  0  0  0  0  0  0  0  0  0  0  0
   -3.0000    7.7942    0.0000 C   0  0  0  0  0  0  0  0  0  0  0  0
   -3.7500    6.4952    0.0000 C   0  0  0  0  0  0  0  0  0  0  0  0
   -3.0000    5.1962    0.0000 C   0  0  0  0  0  0  0  0  0  0  0  0
   -1.5000    2.5981    0.0000 O   0  0  0  0  0  0  0  0  0  0  0  0
  1  2  1  0
  2  3  1  0
  3  4  2  0
  4  5  1  0
  5  6  2  0
  6  7  1  0
  7  8  2  0
  8  9  1  0
  9 10  2  0
 10 11  1  0
 11 12  2  0
 12 13  1  0
 13 14  1  0
 14 15  1  0
 14 16  2  0
 14 17  2  0
 12 18  1  0
 18 19  2  0
 19 20  1  0
 20 21  1  0
 21 22  2  0
 22 23  1  0
 23 24  2  0
 24 25  1  0
 25 26  2  0
 20 27  1  0
  8  3  1  0
 19  9  1  0
 26 21  1  0
 27  7  1  0
M  END
>  <assay_chembl_id>  (15) 
CHEMBL648076

>  <assay_description>  (15) 
Displacement of [3H]mibolerone from human Androgen receptor

>  <parent_molecule_chembl_id>  (15) 
CHEMBL65021

>  <canonical_smiles>  (15) 
COc1cccc2c1-c1ccc(NS(C)(=O)=O)cc1C(c1ccccc1)O2

>  <standard_type>  (15) 
IC50

>  <standard_relation>  (15) 
=

>  <standard_value>  (15) 
6525.0

>  <standard_units>  (15) 
nM

>  <target_pref_name>  (15) 
Androgen Receptor

>  <target_chembl_id>  (15) 
CHEMBL1871

>  <target_organism>  (15) 
Homo sapiens

>  <pchembl_median>  (15) 
6.775

$$$$
CHEMBL65221
     RDKit          2D

 29 32  0  0  0  0  0  0  0  0999 V2000
    4.5000   -2.5981    0.0000 C   0  0  0  0  0  0  0  0  0  0  0  0
    3.7500   -1.2990    0.0000 S   0  0  0  0  0  0  0  0  0  0  0  0
    2.4510   -2.0490    0.0000 O   0  0  0  0  0  0  0  0  0  0  0  0
    5.0490   -0.5490    0.0000 O   0  0  0  0  0  0  0  0  0  0  0  0
    3.0000    0.0000    0.0000 N   0  0  0  0  0  0  0  0  0  0  0  0
    1.5000    0.0000    0.0000 C   0  0  0  0  0  0  0  0  0  0  0  0
    0.7500   -1.2990    0.0000 C   0  0  0  0  0  0  0  0  0  0  0  0
   -0.7500   -1.2990    0.0000 C   0  0  0  0  0  0  0  0  0  0  0  0
   -1.5000    0.0000    0.0000 C   0  0  0  0  0  0  0  0  0  0  0  0
   -0.7500    1.2990    0.0000 C   0  0  0  0  0  0  0  0  0  0  0  0
    0.7500    1.2990    0.0000 C   0  0  0  0  0  0  0  0  0  0  0  0
   -1.5000    2.5981    0.0000 C   0  0  0  0  0  0  0  0  0  0  0  0
   -0.7500    3.8971    0.0000 C   0  0  0  0  0  0  0  0  0  0  0  0
    0.7500    3.8971    0.0000 C   0  0  0  0  0  0  0  0  0  0  0  0
    1.5000    5.1962    0.0000 C   0  0  0  0  0  0  0  0  0  0  0  0
    0.7500    6.4952    0.0000 C   0  0  0  0  0  0  0  0  0  0  0  0
   -0.7500    6.4952    0.0000 C   0  0  0  0  0  0  0  0  0  0  0  0
   -1.5000    5.1962    0.0000 C   0  0  0  0  0  0  0  0  0  0  0  0
   -3.0000    2.5981    0.0000 O   0  0  0  0  0  0  0  0  0  0  0  0
   -3.7500    1.2990    0.0000 C   0  0  0  0  0  0  0  0  0  0  0  0
   -5.2500    1.2990    0.0000 C   0  0  0  0  0  0  0  0  0  0  0  0
   -6.0000   -0.0000    0.0000 C   0  0  0  0  0  0  0  0  0  0  0  0
   -5.2500   -1.2990    0.0000 C   0  0  0  0  0  0  0  0  0  0  0  0
   -3.7500   -1.2990    0.0000 C   0  0  0  0  0  0  0  0  0  0  0  0
   -3.0000   -2.5981    0.0000 O   0  0  0  0  0  0  0  0  0  0  0  0
   -3.7500   -3.8971    0.0000 C   0  0  0  0  0  0  0  0  0  0  0  0
   -3.0000   -5.1962    0.0000 F   0  0  0  0  0  0  0  0  0  0  0  0
   -5.2500   -3.8971    0.0000 F   0  0  0  0  0  0  0  0  0  0  0  0
   -3.0000    0.0000    0.0000 C   0  0  0  0  0  0  0  0  0  0  0  0
  1  2  1  0
  2  3  2  0
  2  4  2  0
  2  5  1  0
  5  6  1  0
  6  7  2  0
  7  8  1  0
  8  9  2  0
  9 10  1  0
 10 11  2  0
 10 12  1  0
 12 13  1  0
 13 14  2  0
 14 15  1  0
 15 16  2  0
 16 17  1  0
 17 18  2  0
 12 19  1  0
 19 20  1  0
 20 21  2  0
 21 22  1  0
 22 23  2  0
 23 24  1  0
 24 25  1  0
 25 26  1  0
 26 27  1  0
 26 28  1  0
 24 29  2  0
 11  6  1  0
 18 13  1  0
 29 20  1  0
 29  9  1  0
M  END
>  <assay_chembl_id>  (16) 
CHEMBL654204

>  <assay_description>  (16) 
Displacement of [3H]mibolerone from human Androgen receptor

>  <parent_molecule_chembl_id>  (16) 
CHEMBL65221

>  <canonical_smiles>  (16) 
CS(=O)(=O)Nc1ccc2c(c1)C(c1ccccc1)Oc1cccc(OC(F)F)c1-2

>  <standard_type>  (16) 
IC50

>  <standard_relation>  (16) 
=

>  <standard_value>  (16) 
8727.0

>  <standard_units>  (16) 
nM

>  <target_pref_name>  (16) 
Androgen Receptor

>  <target_chembl_id>  (16) 
CHEMBL1871

>  <target_organism>  (16) 
Homo sapiens

>  <pchembl_median>  (16) 
7.01

$$$$
CHEMBL62761
     RDKit          2D

 23 26  0  0  0  0  0  0  0  0999 V2000
    3.0000    0.0000    0.0000 C   0  0  0  0  0  0  0  0  0  0  0  0
    1.5000    0.0000    0.0000 C   0  0  0  0  0  0  0  0  0  0  0  0
    0.7500   -1.2990    0.0000 C   0  0  0  0  0  0  0  0  0  0  0  0
   -0.7500   -1.2990    0.0000 C   0  0  0  0  0  0  0  0  0  0  0  0
   -0.4895   -2.7762    0.0000 C   0  0  0  0  0  0  0  0  0  0  0  0
   -2.1595   -1.8121    0.0000 C   0  0  0  0  0  0  0  0  0  0  0  0
   -1.5000    0.0000    0.0000 N   0  0  0  0  0  0  0  0  0  0  0  0
   -0.7500    1.2990    0.0000 C   0  0  0  0  0  0  0  0  0  0  0  0
   -1.5000    2.5981    0.0000 C   0  0  0  0  0  0  0  0  0  0  0  0
   -0.7500    3.8971    0.0000 C   0  0  0  0  0  0  0  0  0  0  0  0
    0.7500    3.8971    0.0000 C   0  0  0  0  0  0  0  0  0  0  0  0
    1.5000    2.5981    0.0000 C   0  0  0  0  0  0  0  0  0  0  0  0
    0.7500    1.2990    0.0000 C   0  0  0  0  0  0  0  0  0  0  0  0
    3.0000    2.5981    0.0000 C   0  0  0  0  0  0  0  0  0  0  0  0
    3.7500    3.8971    0.0000 O   0  0  0  0  0  0  0  0  0  0  0  0
    3.0000    5.1962    0.0000 C   0  0  0  0  0  0  0  0  0  0  0  0
    3.7500    6.4952    0.0000 C   0  0  0  0  0  0  0  0  0  0  0  0
    5.2500    6.4952    0.0000 F   0  0  0  0  0  0  0  0  0  0  0  0
    3.0000    7.7942    0.0000 C   0  0  0  0  0  0  0  0  0  0  0  0
    1.5000    7.7942    0.0000 C   0  0  0  0  0  0  0  0  0  0  0  0
    0.7500    9.0933    0.0000 Br  0  0  0  0  0  0  0  0  0  0  0  0
    0.7500    6.4952    0.0000 C   0  0  0  0  0  0  0  0  0  0  0  0
    1.5000    5.1962    0.0000 C   0  0  0  0  0  0  0  0  0  0  0  0
  1  2  1  0
  2  3  2  0
  3  4  1  0
  4  5  1  0
  4  6  1  0
  4  7  1  0
  7  8  1  0
  8  9  2  0
  9 10  1  0
 10 11  2  0
 11 12  1  0
 12 13  2  0
 12 14  1  0
 14 15  1  0
 15 16  1  0
 16 17  2  0
 17 18  1  0
 17 19  1  0
 19 20  2  0
 20 21  1  0
 20 22  1  0
 22 23  2  0
 13  2  1  0
 23 16  1  0
 13  8  1  0
 23 11  1  0
M  END
>  <assay_chembl_id>  (17) 
CHEMBL649557

>  <assay_description>  (17) 
Inhibition of antagonist activity towards Androgen receptor

>  <parent_molecule_chembl_id>  (17) 
CHEMBL62761

>  <canonical_smiles>  (17) 
CC1=CC(C)(C)Nc2ccc3c(c21)COc1c(F)cc(Br)cc1-3

>  <standard_type>  (17) 
IC50

>  <standard_relation>  (17) 
=

>  <standard_value>  (17) 
90.0

>  <standard_units>  (17) 
nM

>  <target_pref_name>  (17) 
Androgen Receptor

>  <target_chembl_id>  (17) 
CHEMBL1871

>  <target_organism>  (17) 
Homo sapiens

>  <pchembl_median>  (17) 
5.7

$$$$
CHEMBL63870
     RDKit          2D

 22 25  0  0  0  0  0  0  0  0999 V2000
    0.7500   -6.4952    0.0000 C   0  0  0  0  0  0  0  0  0  0  0  0
   -0.7500   -6.4952    0.0000 C   0  0  0  0  0  0  0  0  0  0  0  0
   -1.5000   -7.7942    0.0000 C   0  0  0  0  0  0  0  0  0  0  0  0
   -3.0000   -7.7942    0.0000 C   0  0  0  0  0  0  0  0  0  0  0  0
   -2.7395   -9.2714    0.0000 C   0  0  0  0  0  0  0  0  0  0  0  0
   -4.4095   -8.3073    0.0000 C   0  0  0  0  0  0  0  0  0  0  0  0
   -3.7500   -6.4952    0.0000 N   0  0  0  0  0  0  0  0  0  0  0  0
   -3.0000   -5.1962    0.0000 C   0  0  0  0  0  0  0  0  0  0  0  0
   -3.7500   -3.8971    0.0000 C   0  0  0  0  0  0  0  0  0  0  0  0
   -3.0000   -2.5981    0.0000 C   0  0  0  0  0  0  0  0  0  0  0  0
   -1.5000   -2.5981    0.0000 C   0  0  0  0  0  0  0  0  0  0  0  0
   -0.7500   -3.8971    0.0000 C   0  0  0  0  0  0  0  0  0  0  0  0
   -1.5000   -5.1962    0.0000 C   0  0  0  0  0  0  0  0  0  0  0  0
    0.7500   -3.8971    0.0000 C   0  0  0  0  0  0  0  0  0  0  0  0
    1.5000   -2.5981    0.0000 O   0  0  0  0  0  0  0  0  0  0  0  0
    0.7500   -1.2990    0.0000 C   0  0  0  0  0  0  0  0  0  0  0  0
    1.5000    0.0000    0.0000 C   0  0  0  0  0  0  0  0  0  0  0  0
    0.7500    1.2990    0.0000 C   0  0  0  0  0  0  0  0  0  0  0  0
   -0.7500    1.2990    0.0000 C   0  0  0  0  0  0  0  0  0  0  0  0
   -1.5000    2.5981    0.0000 Br  0  0  0  0  0  0  0  0  0  0  0  0
   -1.5000    0.0000    0.0000 C   0  0  0  0  0  0  0  0  0  0  0  0
   -0.7500   -1.2990    0.0000 C   0  0  0  0  0  0  0  0  0  0  0  0
  1  2  1  0
  2  3  2  0
  3  4  1  0
  4  5  1  0
  4  6  1  0
  4  7  1  0
  7  8  1  0
  8  9  2  0
  9 10  1  0
 10 11  2  0
 11 12  1  0
 12 13  2  0
 12 14  1  0
 14 15  1  0
 15 16  1  0
 16 17  2  0
 17 18  1  0
 18 19  2  0
 19 20  1  0
 19 21  1  0
 21 22  2  0
 13  2  1  0
 22 16  1  0
 13  8  1  0
 22 11  1  0
M  END
>  <assay_chembl_id>  (18) 
CHEMBL649557

>  <assay_description>  (18) 
Inhibition of antagonist activity towards Androgen receptor

>  <parent_molecule_chembl_id>  (18) 
CHEMBL63870

>  <canonical_smiles>  (18) 
CC1=CC(C)(C)Nc2ccc3c(c21)COc1ccc(Br)cc1-3

>  <standard_type>  (18) 
IC50

>  <standard_relation>  (18) 
=

>  <standard_value>  (18) 
395.0

>  <standard_units>  (18) 
nM

>  <target_pref_name>  (18) 
Androgen Receptor

>  <target_chembl_id>  (18) 
CHEMBL1871

>  <target_organism>  (18) 
Homo sapiens

>  <pchembl_median>  (18) 
7.355

$$$$
CHEMBL65079
     RDKit          2D

 22 25  0  0  0  0  0  0  0  0999 V2000
    0.7500   -6.4952    0.0000 C   0  0  0  0  0  0  0  0  0  0  0  0
   -0.7500   -6.4952    0.0000 C   0  0  0  0  0  0  0  0  0  0  0  0
   -1.5000   -7.7942    0.0000 C   0  0  0  0  0  0  0  0  0  0  0  0
   -3.0000   -7.7942    0.0000 C   0  0  0  0  0  0  0  0  0  0  0  0
   -2.7395   -9.2714    0.0000 C   0  0  0  0  0  0  0  0  0  0  0  0
   -4.4095   -8.3073    0.0000 C   0  0  0  0  0  0  0  0  0  0  0  0
   -3.7500   -6.4952    0.0000 N   0  0  0  0  0  0  0  0  0  0  0  0
   -3.0000   -5.1962    0.0000 C   0  0  0  0  0  0  0  0  0  0  0  0
   -3.7500   -3.8971    0.0000 C   0  0  0  0  0  0  0  0  0  0  0  0
   -3.0000   -2.5981    0.0000 C   0  0  0  0  0  0  0  0  0  0  0  0
   -1.5000   -2.5981    0.0000 C   0  0  0  0  0  0  0  0  0  0  0  0
   -0.7500   -3.8971    0.0000 C   0  0  0  0  0  0  0  0  0  0  0  0
   -1.5000   -5.1962    0.0000 C   0  0  0  0  0  0  0  0  0  0  0  0
    0.7500   -3.8971    0.0000 C   0  0  0  0  0  0  0  0  0  0  0  0
    1.5000   -2.5981    0.0000 O   0  0  0  0  0  0  0  0  0  0  0  0
    0.7500   -1.2990    0.0000 C   0  0  0  0  0  0  0  0  0  0  0  0
    1.5000    0.0000    0.0000 C   0  0  0  0  0  0  0  0  0  0  0  0
    0.7500    1.2990    0.0000 C   0  0  0  0  0  0  0  0  0  0  0  0
   -0.7500    1.2990    0.0000 C   0  0  0  0  0  0  0  0  0  0  0  0
   -1.5000    2.5981    0.0000 F   0  0  0  0  0  0  0  0  0  0  0  0
   -1.5000    0.0000    0.0000 C   0  0  0  0  0  0  0  0  0  0  0  0
   -0.7500   -1.2990    0.0000 C   0  0  0  0  0  0  0  0  0  0  0  0
  1  2  1  0
  2  3  2  0
  3  4  1  0
  4  5  1  0
  4  6  1  0
  4  7  1  0
  7  8  1  0
  8  9  2  0
  9 10  1  0
 10 11  2  0
 11 12  1  0
 12 13  2  0
 12 14  1  0
 14 15  1  0
 15 16  1  0
 16 17  2  0
 17 18  1  0
 18 19  2  0
 19 20  1  0
 19 21  1  0
 21 22  2  0
 13  2  1  0
 22 16  1  0
 13  8  1  0
 22 11  1  0
M  END
>  <assay_chembl_id>  (19) 
CHEMBL649557

>  <assay_description>  (19) 
Inhibition of antagonist activity towards Androgen receptor

>  <parent_molecule_chembl_id>  (19) 
CHEMBL65079

>  <canonical_smiles>  (19) 
CC1=CC(C)(C)Nc2ccc3c(c21)COc1ccc(F)cc1-3

>  <standard_type>  (19) 
IC50

>  <standard_relation>  (19) 
=

>  <standard_value>  (19) 
1248.0

>  <standard_units>  (19) 
nM

>  <target_pref_name>  (19) 
Androgen Receptor

>  <target_chembl_id>  (19) 
CHEMBL1871

>  <target_organism>  (19) 
Homo sapiens

>  <pchembl_median>  (19) 
6.71

$$$$
CHEMBL65743
     RDKit          2D

 23 26  0  0  0  0  0  0  0  0999 V2000
    3.0000    0.0000    0.0000 C   0  0  0  0  0  0  0  0  0  0  0  0
    1.5000    0.0000    0.0000 C   0  0  0  0  0  0  0  0  0  0  0  0
    0.7500   -1.2990    0.0000 C   0  0  0  0  0  0  0  0  0  0  0  0
   -0.7500   -1.2990    0.0000 C   0  0  0  0  0  0  0  0  0  0  0  0
   -0.4895   -2.7762    0.0000 C   0  0  0  0  0  0  0  0  0  0  0  0
   -2.1595   -1.8121    0.0000 C   0  0  0  0  0  0  0  0  0  0  0  0
   -1.5000    0.0000    0.0000 N   0  0  0  0  0  0  0  0  0  0  0  0
   -0.7500    1.2990    0.0000 C   0  0  0  0  0  0  0  0  0  0  0  0
   -1.5000    2.5981    0.0000 C   0  0  0  0  0  0  0  0  0  0  0  0
   -0.7500    3.8971    0.0000 C   0  0  0  0  0  0  0  0  0  0  0  0
    0.7500    3.8971    0.0000 C   0  0  0  0  0  0  0  0  0  0  0  0
    1.5000    2.5981    0.0000 C   0  0  0  0  0  0  0  0  0  0  0  0
    0.7500    1.2990    0.0000 C   0  0  0  0  0  0  0  0  0  0  0  0
    3.0000    2.5981    0.0000 C   0  0  0  0  0  0  0  0  0  0  0  0
    3.7500    3.8971    0.0000 O   0  0  0  0  0  0  0  0  0  0  0  0
    3.0000    5.1962    0.0000 C   0  0  0  0  0  0  0  0  0  0  0  0
    3.7500    6.4952    0.0000 C   0  0  0  0  0  0  0  0  0  0  0  0
    5.2500    6.4952    0.0000 F   0  0  0  0  0  0  0  0  0  0  0  0
    3.0000    7.7942    0.0000 C   0  0  0  0  0  0  0  0  0  0  0  0
    1.5000    7.7942    0.0000 C   0  0  0  0  0  0  0  0  0  0  0  0
    0.7500    9.0933    0.0000 Cl  0  0  0  0  0  0  0  0  0  0  0  0
    0.7500    6.4952    0.0000 C   0  0  0  0  0  0  0  0  0  0  0  0
    1.5000    5.1962    0.0000 C   0  0  0  0  0  0  0  0  0  0  0  0
  1  2  1  0
  2  3  2  0
  3  4  1  0
  4  5  1  0
  4  6  1  0
  4  7  1  0
  7  8  1  0
  8  9  2  0
  9 10  1  0
 10 11  2  0
 11 12  1  0
 12 13  2  0
 12 14  1  0
 14 15  1  0
 15 16  1  0
 16 17  2  0
 17 18  1  0
 17 19  1  0
 19 20  2  0
 20 21  1  0
 20 22  1  0
 22 23  2  0
 13  2  1  0
 23 16  1  0
 13  8  1  0
 23 11  1  0
M  END
>  <assay_chembl_id>  (20) 
CHEMBL649559

>  <assay_description>  (20) 
Inhibition of antagonist activity towards human Androgen receptor

>  <parent_molecule_chembl_id>  (20) 
CHEMBL65743

>  <canonical_smiles>  (20) 
CC1=CC(C)(C)Nc2ccc3c(c21)COc1c(F)cc(Cl)cc1-3

>  <standard_type>  (20) 
IC50

>  <standard_relation>  (20) 
=

>  <standard_value>  (20) 
428.0

>  <standard_units>  (20) 
nM

>  <target_pref_name>  (20) 
Androgen Receptor

>  <target_chembl_id>  (20) 
CHEMBL1871

>  <target_organism>  (20) 
Homo sapiens

>  <pchembl_median>  (20) 
7.65

$$$$
CHEMBL1908373
     RDKit          2D

 33 37  0  0  0  0  0  0  0  0999 V2000
   -5.2500    3.8971    0.0000 C   0  0  0  0  0  0  0  0  0  0  0  0
   -6.0000    2.5981    0.0000 N   0  0  0  0  0  0  0  0  0  0  0  0
   -7.5000    2.5981    0.0000 C   0  0  0  0  0  0  0  0  0  0  0  0
   -5.2500    1.2990    0.0000 C   0  0  0  0  0  0  0  0  0  0  0  0
   -3.7500    1.2990    0.0000 C   0  0  0  0  0  0  0  0  0  0  0  0
   -3.0000    0.0000    0.0000 C   0  0  0  0  0  0  0  0  0  0  0  0
   -3.7500   -1.2990    0.0000 C   0  0  0  0  0  0  0  0  0  0  0  0
   -3.0000   -2.5981    0.0000 C   0  0  0  0  0  0  0  0  0  0  0  0
   -3.7500   -3.8971    0.0000 C   0  0  0  0  0  0  0  0  0  0  0  0
   -3.0000   -5.1962    0.0000 C   0  0  0  0  0  0  0  0  0  0  0  0
   -4.4998   -5.1699    0.0000 C   0  0  0  0  0  0  0  0  0  0  0  0
   -1.5000   -5.1962    0.0000 C   0  0  0  0  0  0  0  0  0  0  0  0
   -1.0365   -6.6227    0.0000 C   0  0  0  0  0  0  0  0  0  0  0  0
   -2.2500   -7.5044    0.0000 C   0  0  0  0  0  0  0  0  0  0  0  0
   -3.4635   -6.6227    0.0000 C   0  0  0  0  0  0  0  0  0  0  0  0
   -4.8980   -6.1842    0.0000 O   0  0  0  0  0  0  0  0  0  0  0  0
   -4.2135   -7.9218    0.0000 C   0  0  0  0  0  0  0  0  0  0  0  0
   -5.7135   -7.9218    0.0000 C   0  0  0  0  0  0  0  0  0  0  0  0
   -6.4635   -9.2208    0.0000 C   0  0  0  0  0  0  0  0  0  0  0  0
   -7.9635   -9.2208    0.0000 O   0  0  0  0  0  0  0  0  0  0  0  0
   -0.7500   -3.8971    0.0000 C   0  0  0  0  0  0  0  0  0  0  0  0
    0.7500   -3.8971    0.0000 C   0  0  0  0  0  0  0  0  0  0  0  0
    1.5000   -2.5981    0.0000 C   0  0  0  0  0  0  0  0  0  0  0  0
    0.7500   -1.2990    0.0000 C   0  0  0  0  0  0  0  0  0  0  0  0
    1.5000    0.0000    0.0000 C   0  0  0  0  0  0  0  0  0  0  0  0
    0.7500    1.2990    0.0000 C   0  0  0  0  0  0  0  0  0  0  0  0
    1.5000    2.5981    0.0000 O   0  0  0  0  0  0  0  0  0  0  0  0
   -0.7500    1.2990    0.0000 C   0  0  0  0  0  0  0  0  0  0  0  0
   -1.5000    0.0000    0.0000 C   0  0  0  0  0  0  0  0  0  0  0  0
   -0.7500   -1.2990    0.0000 C   0  0  0  0  0  0  0  0  0  0  0  0
   -1.5000   -2.5981    0.0000 C   0  0  0  0  0  0  0  0  0  0  0  0
   -5.2500   -1.2990    0.0000 C   0  0  0  0  0  0  0  0  0  0  0  0
   -6.0000    0.0000    0.0000 C   0  0  0  0  0  0  0  0  0  0  0  0
  1  2  1  0
  2  3  1  0
  2  4  1  0
  4  5  2  0
  5  6  1  0
  6  7  2  0
  8  7  1  6
  8  9  1  0
  9 10  1  0
 10 11  1  1
 10 12  1  0
 12 13  1  6
 13 14  1  0
 14 15  1  0
 15 16  1  1
 15 17  1  0
 17 18  1  0
 18 19  1  0
 19 20  1  0
 12 21  1  0
 21 22  1  1
 22 23  1  0
 23 24  1  0
 24 25  2  0
 25 26  1  0
 26 27  2  0
 26 28  1  0
 28 29  1  0
 29 30  1  0
 30 31  2  0
  7 32  1  0
 32 33  2  0
 33  4  1  0
 31  8  1  0
 15 10  1  0
 31 21  1  0
 30 24  1  0
M  END
>  <assay_chembl_id>  (21) 
CHEMBL649557

>  <assay_description>  (21) 
Inhibition of antagonist activity towards Androgen receptor

>  <parent_molecule_chembl_id>  (21) 
CHEMBL1908373

>  <canonical_smiles>  (21) 
CN(C)c1ccc([C@H]2C[C@]3(C)[C@@H](CC[C@]3(O)CCCO)[C@@H]3CCC4=CC(=O)CCC4=C32)cc1

>  <standard_type>  (21) 
IC50

>  <standard_relation>  (21) 
=

>  <standard_value>  (21) 
269.0

>  <standard_units>  (21) 
nM

>  <target_pref_name>  (21) 
Androgen Receptor

>  <target_chembl_id>  (21) 
CHEMBL1871

>  <target_organism>  (21) 
Homo sapiens

>  <pchembl_median>  (21) 
7.195

$$$$
CHEMBL64123
     RDKit          2D

 22 25  0  0  0  0  0  0  0  0999 V2000
    0.7500   -6.4952    0.0000 C   0  0  0  0  0  0  0  0  0  0  0  0
   -0.7500   -6.4952    0.0000 C   0  0  0  0  0  0  0  0  0  0  0  0
   -1.5000   -7.7942    0.0000 C   0  0  0  0  0  0  0  0  0  0  0  0
   -3.0000   -7.7942    0.0000 C   0  0  0  0  0  0  0  0  0  0  0  0
   -2.7395   -9.2714    0.0000 C   0  0  0  0  0  0  0  0  0  0  0  0
   -4.4095   -8.3073    0.0000 C   0  0  0  0  0  0  0  0  0  0  0  0
   -3.7500   -6.4952    0.0000 N   0  0  0  0  0  0  0  0  0  0  0  0
   -3.0000   -5.1962    0.0000 C   0  0  0  0  0  0  0  0  0  0  0  0
   -3.7500   -3.8971    0.0000 C   0  0  0  0  0  0  0  0  0  0  0  0
   -3.0000   -2.5981    0.0000 C   0  0  0  0  0  0  0  0  0  0  0  0
   -1.5000   -2.5981    0.0000 C   0  0  0  0  0  0  0  0  0  0  0  0
   -0.7500   -3.8971    0.0000 C   0  0  0  0  0  0  0  0  0  0  0  0
   -1.5000   -5.1962    0.0000 C   0  0  0  0  0  0  0  0  0  0  0  0
    0.7500   -3.8971    0.0000 C   0  0  0  0  0  0  0  0  0  0  0  0
    1.5000   -2.5981    0.0000 O   0  0  0  0  0  0  0  0  0  0  0  0
    0.7500   -1.2990    0.0000 C   0  0  0  0  0  0  0  0  0  0  0  0
    1.5000    0.0000    0.0000 C   0  0  0  0  0  0  0  0  0  0  0  0
    0.7500    1.2990    0.0000 C   0  0  0  0  0  0  0  0  0  0  0  0
   -0.7500    1.2990    0.0000 C   0  0  0  0  0  0  0  0  0  0  0  0
   -1.5000    2.5981    0.0000 Cl  0  0  0  0  0  0  0  0  0  0  0  0
   -1.5000    0.0000    0.0000 C   0  0  0  0  0  0  0  0  0  0  0  0
   -0.7500   -1.2990    0.0000 C   0  0  0  0  0  0  0  0  0  0  0  0
  1  2  1  0
  2  3  2  0
  3  4  1  0
  4  5  1  0
  4  6  1  0
  4  7  1  0
  7  8  1  0
  8  9  2  0
  9 10  1  0
 10 11  2  0
 11 12  1  0
 12 13  2  0
 12 14  1  0
 14 15  1  0
 15 16  1  0
 16 17  2  0
 17 18  1  0
 18 19  2  0
 19 20  1  0
 19 21  1  0
 21 22  2  0
 13  2  1  0
 22 16  1  0
 13  8  1  0
 22 11  1  0
M  END
>  <assay_chembl_id>  (22) 
CHEMBL649557

>  <assay_description>  (22) 
Inhibition of antagonist activity towards Androgen receptor

>  <parent_molecule_chembl_id>  (22) 
CHEMBL64123

>  <canonical_smiles>  (22) 
CC1=CC(C)(C)Nc2ccc3c(c21)COc1ccc(Cl)cc1-3

>  <standard_type>  (22) 
IC50

>  <standard_relation>  (22) 
=

>  <standard_value>  (22) 
788.0

>  <standard_units>  (22) 
nM

>  <target_pref_name>  (22) 
Androgen Receptor

>  <target_chembl_id>  (22) 
CHEMBL1871

>  <target_organism>  (22) 
Homo sapiens

>  <pchembl_median>  (22) 
6.645

$$$$
CHEMBL293409
     RDKit          2D

 24 27  0  0  0  0  0  0  0  0999 V2000
    0.7500   -6.4952    0.0000 C   0  0  0  0  0  0  0  0  0  0  0  0
   -0.7500   -6.4952    0.0000 C   0  0  0  0  0  0  0  0  0  0  0  0
   -1.5000   -7.7942    0.0000 C   0  0  0  0  0  0  0  0  0  0  0  0
   -3.0000   -7.7942    0.0000 C   0  0  0  0  0  0  0  0  0  0  0  0
   -2.7395   -9.2714    0.0000 C   0  0  0  0  0  0  0  0  0  0  0  0
   -4.4095   -8.3073    0.0000 C   0  0  0  0  0  0  0  0  0  0  0  0
   -3.7500   -6.4952    0.0000 N   0  0  0  0  0  0  0  0  0  0  0  0
   -3.0000   -5.1962    0.0000 C   0  0  0  0  0  0  0  0  0  0  0  0
   -3.7500   -3.8971    0.0000 C   0  0  0  0  0  0  0  0  0  0  0  0
   -3.0000   -2.5981    0.0000 C   0  0  0  0  0  0  0  0  0  0  0  0
   -1.5000   -2.5981    0.0000 C   0  0  0  0  0  0  0  0  0  0  0  0
   -0.7500   -3.8971    0.0000 C   0  0  0  0  0  0  0  0  0  0  0  0
   -1.5000   -5.1962    0.0000 C   0  0  0  0  0  0  0  0  0  0  0  0
    0.7500   -3.8971    0.0000 C   0  0  0  0  0  0  0  0  0  0  0  0
    1.5000   -2.5981    0.0000 O   0  0  0  0  0  0  0  0  0  0  0  0
    0.7500   -1.2990    0.0000 C   0  0  0  0  0  0  0  0  0  0  0  0
    1.5000    0.0000    0.0000 C   0  0  0  0  0  0  0  0  0  0  0  0
    0.7500    1.2990    0.0000 C   0  0  0  0  0  0  0  0  0  0  0  0
   -0.7500    1.2990    0.0000 C   0  0  0  0  0  0  0  0  0  0  0  0
   -1.5000    2.5981    0.0000 N   0  0  0  0  0  4  0  0  0  0  0  0
   -3.0000    2.5981    0.0000 O   0  0  0  0  0  0  0  0  0  0  0  0
   -0.7500    3.8971    0.0000 O   0  0  0  0  0  1  0  0  0  0  0  0
   -1.5000    0.0000    0.0000 C   0  0  0  0  0  0  0  0  0  0  0  0
   -0.7500   -1.2990    0.0000 C   0  0  0  0  0  0  0  0  0  0  0  0
  1  2  1  0
  2  3  1  0
  3  4  1  0
  4  5  1  0
  4  6  1  0
  4  7  1  0
  7  8  1  0
  8  9  2  0
  9 10  1  0
 10 11  2  0
 11 12  1  0
 12 13  2  0
 12 14  1  0
 14 15  1  0
 15 16  1  0
 16 17  2  0
 17 18  1  0
 18 19  2  0
 19 20  1  0
 20 21  2  0
 20 22  1  0
 19 23  1  0
 23 24  2  0
 13  2  1  0
 24 16  1  0
 13  8  1  0
 24 11  1  0
M  CHG  2  20   1  22  -1
M  END
>  <assay_chembl_id>  (23) 
CHEMBL649557

>  <assay_description>  (23) 
Inhibition of antagonist activity towards Androgen receptor

>  <parent_molecule_chembl_id>  (23) 
CHEMBL293409

>  <canonical_smiles>  (23) 
CC1CC(C)(C)Nc2ccc3c(c21)COc1ccc([N+](=O)[O-])cc1-3

>  <standard_type>  (23) 
IC50

>  <standard_relation>  (23) 
=

>  <standard_value>  (23) 
63.0

>  <standard_units>  (23) 
nM

>  <target_pref_name>  (23) 
Androgen Receptor

>  <target_chembl_id>  (23) 
CHEMBL1871

>  <target_organism>  (23) 
Homo sapiens

>  <pchembl_median>  (23) 
6.34

$$$$
CHEMBL63788
     RDKit          2D

 23 26  0  0  0  0  0  0  0  0999 V2000
    3.0000    0.0000    0.0000 C   0  0  0  0  0  0  0  0  0  0  0  0
    1.5000    0.0000    0.0000 C   0  0  0  0  0  0  0  0  0  0  0  0
    0.7500   -1.2990    0.0000 C   0  0  0  0  0  0  0  0  0  0  0  0
   -0.7500   -1.2990    0.0000 C   0  0  0  0  0  0  0  0  0  0  0  0
   -0.4895   -2.7762    0.0000 C   0  0  0  0  0  0  0  0  0  0  0  0
   -2.1595   -1.8121    0.0000 C   0  0  0  0  0  0  0  0  0  0  0  0
   -1.5000    0.0000    0.0000 N   0  0  0  0  0  0  0  0  0  0  0  0
   -0.7500    1.2990    0.0000 C   0  0  0  0  0  0  0  0  0  0  0  0
   -1.5000    2.5981    0.0000 C   0  0  0  0  0  0  0  0  0  0  0  0
   -0.7500    3.8971    0.0000 C   0  0  0  0  0  0  0  0  0  0  0  0
    0.7500    3.8971    0.0000 C   0  0  0  0  0  0  0  0  0  0  0  0
    1.5000    2.5981    0.0000 C   0  0  0  0  0  0  0  0  0  0  0  0
    0.7500    1.2990    0.0000 C   0  0  0  0  0  0  0  0  0  0  0  0
    3.0000    2.5981    0.0000 C   0  0  0  0  0  0  0  0  0  0  0  0
    3.7500    3.8971    0.0000 O   0  0  0  0  0  0  0  0  0  0  0  0
    3.0000    5.1962    0.0000 C   0  0  0  0  0  0  0  0  0  0  0  0
    3.7500    6.4952    0.0000 C   0  0  0  0  0  0  0  0  0  0  0  0
    5.2500    6.4952    0.0000 F   0  0  0  0  0  0  0  0  0  0  0  0
    3.0000    7.7942    0.0000 C   0  0  0  0  0  0  0  0  0  0  0  0
    1.5000    7.7942    0.0000 C   0  0  0  0  0  0  0  0  0  0  0  0
    0.7500    9.0933    0.0000 F   0  0  0  0  0  0  0  0  0  0  0  0
    0.7500    6.4952    0.0000 C   0  0  0  0  0  0  0  0  0  0  0  0
    1.5000    5.1962    0.0000 C   0  0  0  0  0  0  0  0  0  0  0  0
  1  2  1  0
  2  3  1  0
  3  4  1  0
  4  5  1  0
  4  6  1  0
  4  7  1  0
  7  8  1  0
  8  9  2  0
  9 10  1  0
 10 11  2  0
 11 12  1  0
 12 13  2  0
 12 14  1  0
 14 15  1  0
 15 16  1  0
 16 17  2  0
 17 18  1  0
 17 19  1  0
 19 20  2  0
 20 21  1  0
 20 22  1  0
 22 23  2  0
 13  2  1  0
 23 16  1  0
 13  8  1  0
 23 11  1  0
M  END
>  <assay_chembl_id>  (24) 
CHEMBL649558

>  <assay_description>  (24) 
Inhibition of antagonist activity towards human androgen receptor

>  <parent_molecule_chembl_id>  (24) 
CHEMBL63788

>  <canonical_smiles>  (24) 
CC1CC(C)(C)Nc2ccc3c(c21)COc1c(F)cc(F)cc1-3

>  <standard_type>  (24) 
IC50

>  <standard_relation>  (24) 
=

>  <standard_value>  (24) 
147.0

>  <standard_units>  (24) 
nM

>  <target_pref_name>  (24) 
Androgen Receptor

>  <target_chembl_id>  (24) 
CHEMBL1871

>  <target_organism>  (24) 
Homo sapiens

>  <pchembl_median>  (24) 
6.95

$$$$
CHEMBL418684
     RDKit          2D

 23 26  0  0  0  0  0  0  0  0999 V2000
    3.0000    0.0000    0.0000 C   0  0  0  0  0  0  0  0  0  0  0  0
    1.5000    0.0000    0.0000 C   0  0  0  0  0  0  0  0  0  0  0  0
    0.7500   -1.2990    0.0000 C   0  0  0  0  0  0  0  0  0  0  0  0
   -0.7500   -1.2990    0.0000 C   0  0  0  0  0  0  0  0  0  0  0  0
   -0.4895   -2.7762    0.0000 C   0  0  0  0  0  0  0  0  0  0  0  0
   -2.1595   -1.8121    0.0000 C   0  0  0  0  0  0  0  0  0  0  0  0
   -1.5000    0.0000    0.0000 N   0  0  0  0  0  0  0  0  0  0  0  0
   -0.7500    1.2990    0.0000 C   0  0  0  0  0  0  0  0  0  0  0  0
   -1.5000    2.5981    0.0000 C   0  0  0  0  0  0  0  0  0  0  0  0
   -0.7500    3.8971    0.0000 C   0  0  0  0  0  0  0  0  0  0  0  0
    0.7500    3.8971    0.0000 C   0  0  0  0  0  0  0  0  0  0  0  0
    1.5000    2.5981    0.0000 C   0  0  0  0  0  0  0  0  0  0  0  0
    0.7500    1.2990    0.0000 C   0  0  0  0  0  0  0  0  0  0  0  0
    3.0000    2.5981    0.0000 C   0  0  0  0  0  0  0  0  0  0  0  0
    3.7500    3.8971    0.0000 O   0  0  0  0  0  0  0  0  0  0  0  0
    3.0000    5.1962    0.0000 C   0  0  0  0  0  0  0  0  0  0  0  0
    3.7500    6.4952    0.0000 C   0  0  0  0  0  0  0  0  0  0  0  0
    5.2500    6.4952    0.0000 F   0  0  0  0  0  0  0  0  0  0  0  0
    3.0000    7.7942    0.0000 C   0  0  0  0  0  0  0  0  0  0  0  0
    1.5000    7.7942    0.0000 C   0  0  0  0  0  0  0  0  0  0  0  0
    0.7500    9.0933    0.0000 F   0  0  0  0  0  0  0  0  0  0  0  0
    0.7500    6.4952    0.0000 C   0  0  0  0  0  0  0  0  0  0  0  0
    1.5000    5.1962    0.0000 C   0  0  0  0  0  0  0  0  0  0  0  0
  1  2  1  0
  2  3  2  0
  3  4  1  0
  4  5  1  0
  4  6  1  0
  4  7  1  0
  7  8  1  0
  8  9  2  0
  9 10  1  0
 10 11  2  0
 11 12  1  0
 12 13  2  0
 12 14  1  0
 14 15  1  0
 15 16  1  0
 16 17  2  0
 17 18  1  0
 17 19  1  0
 19 20  2  0
 20 21  1  0
 20 22  1  0
 22 23  2  0
 13  2  1  0
 23 16  1  0
 13  8  1  0
 23 11  1  0
M  END
>  <assay_chembl_id>  (25) 
CHEMBL649559

>  <assay_description>  (25) 
Inhibition of antagonist activity towards human Androgen receptor

>  <parent_molecule_chembl_id>  (25) 
CHEMBL418684

>  <canonical_smiles>  (25) 
CC1=CC(C)(C)Nc2ccc3c(c21)COc1c(F)cc(F)cc1-3

>  <standard_type>  (25) 
IC50

>  <standard_relation>  (25) 
=

>  <standard_value>  (25) 
644.0

>  <standard_units>  (25) 
nM

>  <target_pref_name>  (25) 
Androgen Receptor

>  <target_chembl_id>  (25) 
CHEMBL1871

>  <target_organism>  (25) 
Homo sapiens

>  <pchembl_median>  (25) 
7.515

$$$$
CHEMBL64294
     RDKit          2D

 24 27  0  0  0  0  0  0  0  0999 V2000
    0.7500   -6.4952    0.0000 C   0  0  0  0  0  0  0  0  0  0  0  0
   -0.7500   -6.4952    0.0000 C   0  0  0  0  0  0  0  0  0  0  0  0
   -1.5000   -7.7942    0.0000 C   0  0  0  0  0  0  0  0  0  0  0  0
   -3.0000   -7.7942    0.0000 C   0  0  0  0  0  0  0  0  0  0  0  0
   -2.7395   -9.2714    0.0000 C   0  0  0  0  0  0  0  0  0  0  0  0
   -4.4095   -8.3073    0.0000 C   0  0  0  0  0  0  0  0  0  0  0  0
   -3.7500   -6.4952    0.0000 N   0  0  0  0  0  0  0  0  0  0  0  0
   -3.0000   -5.1962    0.0000 C   0  0  0  0  0  0  0  0  0  0  0  0
   -3.7500   -3.8971    0.0000 C   0  0  0  0  0  0  0  0  0  0  0  0
   -3.0000   -2.5981    0.0000 C   0  0  0  0  0  0  0  0  0  0  0  0
   -1.5000   -2.5981    0.0000 C   0  0  0  0  0  0  0  0  0  0  0  0
   -0.7500   -3.8971    0.0000 C   0  0  0  0  0  0  0  0  0  0  0  0
   -1.5000   -5.1962    0.0000 C   0  0  0  0  0  0  0  0  0  0  0  0
    0.7500   -3.8971    0.0000 C   0  0  0  0  0  0  0  0  0  0  0  0
    1.5000   -2.5981    0.0000 O   0  0  0  0  0  0  0  0  0  0  0  0
    0.7500   -1.2990    0.0000 C   0  0  0  0  0  0  0  0  0  0  0  0
    1.5000    0.0000    0.0000 C   0  0  0  0  0  0  0  0  0  0  0  0
    0.7500    1.2990    0.0000 C   0  0  0  0  0  0  0  0  0  0  0  0
   -0.7500    1.2990    0.0000 C   0  0  0  0  0  0  0  0  0  0  0  0
   -1.5000    2.5981    0.0000 N   0  0  0  0  0  4  0  0  0  0  0  0
   -3.0000    2.5981    0.0000 O   0  0  0  0  0  0  0  0  0  0  0  0
   -0.7500    3.8971    0.0000 O   0  0  0  0  0  1  0  0  0  0  0  0
   -1.5000    0.0000    0.0000 C   0  0  0  0  0  0  0  0  0  0  0  0
   -0.7500   -1.2990    0.0000 C   0  0  0  0  0  0  0  0  0  0  0  0
  1  2  1  0
  2  3  2  0
  3  4  1  0
  4  5  1  0
  4  6  1  0
  4  7  1  0
  7  8  1  0
  8  9  2  0
  9 10  1  0
 10 11  2  0
 11 12  1  0
 12 13  2  0
 12 14  1  0
 14 15  1  0
 15 16  1  0
 16 17  2  0
 17 18  1  0
 18 19  2  0
 19 20  1  0
 20 21  2  0
 20 22  1  0
 19 23  1  0
 23 24  2  0
 13  2  1  0
 24 16  1  0
 13  8  1  0
 24 11  1  0
M  CHG  2  20   1  22  -1
M  END
>  <assay_chembl_id>  (26) 
CHEMBL649557

>  <assay_description>  (26) 
Inhibition of antagonist activity towards Androgen receptor

>  <parent_molecule_chembl_id>  (26) 
CHEMBL64294

>  <canonical_smiles>  (26) 
CC1=CC(C)(C)Nc2ccc3c(c21)COc1ccc([N+](=O)[O-])cc1-3

>  <standard_type>  (26) 
IC50

>  <standard_relation>  (26) 
=

>  <standard_value>  (26) 
60.0

>  <standard_units>  (26) 
nM

>  <target_pref_name>  (26) 
Androgen Receptor

>  <target_chembl_id>  (26) 
CHEMBL1871

>  <target_organism>  (26) 
Homo sapiens

>  <pchembl_median>  (26) 
5.67

$$$$
CHEMBL62227
     RDKit          2D

 24 27  0  0  0  0  0  0  0  0999 V2000
    3.0000    0.0000    0.0000 C   0  0  0  0  0  0  0  0  0  0  0  0
    1.5000    0.0000    0.0000 C   0  0  0  0  0  0  0  0  0  0  0  0
    0.7500   -1.2990    0.0000 C   0  0  0  0  0  0  0  0  0  0  0  0
   -0.7500   -1.2990    0.0000 C   0  0  0  0  0  0  0  0  0  0  0  0
   -0.4895   -2.7762    0.0000 C   0  0  0  0  0  0  0  0  0  0  0  0
   -2.1595   -1.8121    0.0000 C   0  0  0  0  0  0  0  0  0  0  0  0
   -1.5000    0.0000    0.0000 N   0  0  0  0  0  0  0  0  0  0  0  0
   -0.7500    1.2990    0.0000 C   0  0  0  0  0  0  0  0  0  0  0  0
   -1.5000    2.5981    0.0000 C   0  0  0  0  0  0  0  0  0  0  0  0
   -0.7500    3.8971    0.0000 C   0  0  0  0  0  0  0  0  0  0  0  0
    0.7500    3.8971    0.0000 C   0  0  0  0  0  0  0  0  0  0  0  0
    1.5000    2.5981    0.0000 C   0  0  0  0  0  0  0  0  0  0  0  0
    0.7500    1.2990    0.0000 C   0  0  0  0  0  0  0  0  0  0  0  0
    3.0000    2.5981    0.0000 C   0  0  0  0  0  0  0  0  0  0  0  0
    3.7500    3.8971    0.0000 O   0  0  0  0  0  0  0  0  0  0  0  0
    3.0000    5.1962    0.0000 C   0  0  0  0  0  0  0  0  0  0  0  0
    3.7500    6.4952    0.0000 C   0  0  0  0  0  0  0  0  0  0  0  0
    5.2500    6.4952    0.0000 F   0  0  0  0  0  0  0  0  0  0  0  0
    3.0000    7.7942    0.0000 C   0  0  0  0  0  0  0  0  0  0  0  0
    1.5000    7.7942    0.0000 C   0  0  0  0  0  0  0  0  0  0  0  0
    0.7500    9.0933    0.0000 C   0  0  0  0  0  0  0  0  0  0  0  0
   -0.0000   10.3923    0.0000 N   0  0  0  0  0  0  0  0  0  0  0  0
    0.7500    6.4952    0.0000 C   0  0  0  0  0  0  0  0  0  0  0  0
    1.5000    5.1962    0.0000 C   0  0  0  0  0  0  0  0  0  0  0  0
  1  2  1  0
  2  3  2  0
  3  4  1  0
  4  5  1  0
  4  6  1  0
  4  7  1  0
  7  8  1  0
  8  9  2  0
  9 10  1  0
 10 11  2  0
 11 12  1  0
 12 13  2  0
 12 14  1  0
 14 15  1  0
 15 16  1  0
 16 17  2  0
 17 18  1  0
 17 19  1  0
 19 20  2  0
 20 21  1  0
 21 22  3  0
 20 23  1  0
 23 24  2  0
 13  2  1  0
 24 16  1  0
 13  8  1  0
 24 11  1  0
M  END
>  <assay_chembl_id>  (27) 
CHEMBL649557

>  <assay_description>  (27) 
Inhibition of antagonist activity towards Androgen receptor

>  <parent_molecule_chembl_id>  (27) 
CHEMBL62227

>  <canonical_smiles>  (27) 
CC1=CC(C)(C)Nc2ccc3c(c21)COc1c(F)cc(C#N)cc1-3

>  <standard_type>  (27) 
IC50

>  <standard_relation>  (27) 
=

>  <standard_value>  (27) 
60.0

>  <standard_units>  (27) 
nM

>  <target_pref_name>  (27) 
Androgen Receptor

>  <target_chembl_id>  (27) 
CHEMBL1871

>  <target_organism>  (27) 
Homo sapiens

>  <pchembl_median>  (27) 
5.77

$$$$
CHEMBL70381
     RDKit          2D

 29 31  0  0  0  0  0  0  0  0999 V2000
   -1.5000    2.5981    0.0000 C   0  0  0  0  0  0  0  0  0  0  0  0
   -0.7500    1.2990    0.0000 C   0  0  0  0  0  0  0  0  0  0  0  0
   -1.5000   -0.0000    0.0000 C   0  0  0  0  0  0  0  0  0  0  0  0
   -3.0000   -0.0000    0.0000 N   0  0  0  0  0  0  0  0  0  0  0  0
   -3.7500   -1.2990    0.0000 S   0  0  0  0  0  0  0  0  0  0  0  0
   -4.5000   -2.5981    0.0000 C   0  0  0  0  0  0  0  0  0  0  0  0
   -2.4510   -2.0490    0.0000 O   0  0  0  0  0  0  0  0  0  0  0  0
   -5.0490   -0.5490    0.0000 O   0  0  0  0  0  0  0  0  0  0  0  0
   -0.7500   -1.2990    0.0000 C   0  0  0  0  0  0  0  0  0  0  0  0
    0.7500   -1.2990    0.0000 C   0  0  0  0  0  0  0  0  0  0  0  0
    1.5000    0.0000    0.0000 C   0  0  0  0  0  0  0  0  0  0  0  0
    0.7500    1.2990    0.0000 C   0  0  0  0  0  0  0  0  0  0  0  0
    1.5000    2.5981    0.0000 N   0  0  0  0  0  0  0  0  0  0  0  0
    0.7500    3.8971    0.0000 C   0  0  0  0  0  0  0  0  0  0  0  0
    1.5000    5.1962    0.0000 C   0  0  0  0  0  0  0  0  0  0  0  0
    3.0000    5.1962    0.0000 C   0  0  0  0  0  0  0  0  0  0  0  0
    3.7500    6.4952    0.0000 C   0  0  0  0  0  0  0  0  0  0  0  0
    3.0000    7.7942    0.0000 C   0  0  0  0  0  0  0  0  0  0  0  0
    1.5000    7.7942    0.0000 C   0  0  0  0  0  0  0  0  0  0  0  0
    0.7500    6.4952    0.0000 C   0  0  0  0  0  0  0  0  0  0  0  0
    3.0000    2.5981    0.0000 C   0  0  0  0  0  0  0  0  0  0  0  0
    3.7500    1.2990    0.0000 C   0  0  0  0  0  0  0  0  0  0  0  0
    3.0000   -0.0000    0.0000 C   0  0  0  0  0  0  0  0  0  0  0  0
    3.7500   -1.2990    0.0000 C   0  0  0  0  0  0  0  0  0  0  0  0
    5.2500   -1.2990    0.0000 C   0  0  0  0  0  0  0  0  0  0  0  0
    6.0000   -2.5981    0.0000 Cl  0  0  0  0  0  0  0  0  0  0  0  0
    6.0000    0.0000    0.0000 C   0  0  0  0  0  0  0  0  0  0  0  0
    5.2500    1.2990    0.0000 C   0  0  0  0  0  0  0  0  0  0  0  0
    6.0000    2.5981    0.0000 F   0  0  0  0  0  0  0  0  0  0  0  0
  1  2  1  0
  2  3  2  0
  3  4  1  0
  4  5  1  0
  5  6  1  0
  5  7  2  0
  5  8  2  0
  3  9  1  0
  9 10  2  0
 10 11  1  0
 11 12  2  0
 12 13  1  0
 13 14  1  0
 14 15  1  0
 15 16  2  0
 16 17  1  0
 17 18  2  0
 18 19  1  0
 19 20  2  0
 13 21  1  0
 21 22  1  0
 22 23  2  0
 23 24  1  0
 24 25  2  0
 25 26  1  0
 25 27  1  0
 27 28  2  0
 28 29  1  0
 12  2  1  0
 20 15  1  0
 28 22  1  0
M  END
>  <assay_chembl_id>  (28) 
CHEMBL648074

>  <assay_description>  (28) 
Displacement of [3H]dexamethasone from human androgen receptor

>  <parent_molecule_chembl_id>  (28) 
CHEMBL70381

>  <canonical_smiles>  (28) 
Cc1c(NS(C)(=O)=O)cccc1N(Cc1ccccc1)Cc1ccc(Cl)cc1F

>  <standard_type>  (28) 
IC50

>  <standard_relation>  (28) 
=

>  <standard_value>  (28) 
300.0

>  <standard_units>  (28) 
nM

>  <target_pref_name>  (28) 
Androgen Receptor

>  <target_chembl_id>  (28) 
CHEMBL1871

>  <target_organism>  (28) 
Homo sapiens

>  <pchembl_median>  (28) 
7.54

$$$$
CHEMBL419633
     RDKit          2D

 27 29  0  0  0  0  0  0  0  0999 V2000
   -1.5000    2.5981    0.0000 C   0  0  0  0  0  0  0  0  0  0  0  0
   -0.7500    1.2990    0.0000 C   0  0  0  0  0  0  0  0  0  0  0  0
   -1.5000   -0.0000    0.0000 C   0  0  0  0  0  0  0  0  0  0  0  0
   -3.0000   -0.0000    0.0000 N   0  0  0  0  0  0  0  0  0  0  0  0
   -3.7500   -1.2990    0.0000 S   0  0  0  0  0  0  0  0  0  0  0  0
   -4.5000   -2.5981    0.0000 C   0  0  0  0  0  0  0  0  0  0  0  0
   -2.4510   -2.0490    0.0000 O   0  0  0  0  0  0  0  0  0  0  0  0
   -5.0490   -0.5490    0.0000 O   0  0  0  0  0  0  0  0  0  0  0  0
   -0.7500   -1.2990    0.0000 C   0  0  0  0  0  0  0  0  0  0  0  0
    0.7500   -1.2990    0.0000 C   0  0  0  0  0  0  0  0  0  0  0  0
    1.5000    0.0000    0.0000 C   0  0  0  0  0  0  0  0  0  0  0  0
    0.7500    1.2990    0.0000 C   0  0  0  0  0  0  0  0  0  0  0  0
    1.5000    2.5981    0.0000 N   0  0  0  0  0  0  0  0  0  0  0  0
    0.7500    3.8971    0.0000 C   0  0  0  0  0  0  0  0  0  0  0  0
    1.5000    5.1962    0.0000 C   0  0  0  0  0  0  0  0  0  0  0  0
    3.0000    5.1962    0.0000 C   0  0  0  0  0  0  0  0  0  0  0  0
    3.7500    6.4952    0.0000 C   0  0  0  0  0  0  0  0  0  0  0  0
    3.0000    7.7942    0.0000 C   0  0  0  0  0  0  0  0  0  0  0  0
    1.5000    7.7942    0.0000 C   0  0  0  0  0  0  0  0  0  0  0  0
    0.7500    6.4952    0.0000 C   0  0  0  0  0  0  0  0  0  0  0  0
    3.0000    2.5981    0.0000 C   0  0  0  0  0  0  0  0  0  0  0  0
    3.7500    1.2990    0.0000 C   0  0  0  0  0  0  0  0  0  0  0  0
    5.2500    1.2990    0.0000 C   0  0  0  0  0  0  0  0  0  0  0  0
    6.0000   -0.0000    0.0000 C   0  0  0  0  0  0  0  0  0  0  0  0
    5.2500   -1.2990    0.0000 C   0  0  0  0  0  0  0  0  0  0  0  0
    3.7500   -1.2990    0.0000 C   0  0  0  0  0  0  0  0  0  0  0  0
    3.0000   -0.0000    0.0000 C   0  0  0  0  0  0  0  0  0  0  0  0
  1  2  1  0
  2  3  2  0
  3  4  1  0
  4  5  1  0
  5  6  1  0
  5  7  2  0
  5  8  2  0
  3  9  1  0
  9 10  2  0
 10 11  1  0
 11 12  2  0
 12 13  1  0
 13 14  1  0
 14 15  1  0
 15 16  2  0
 16 17  1  0
 17 18  2  0
 18 19  1  0
 19 20  2  0
 13 21  1  0
 21 22  1  0
 22 23  2  0
 23 24  1  0
 24 25  2  0
 25 26  1  0
 26 27  2  0
 12  2  1  0
 20 15  1  0
 27 22  1  0
M  END
>  <assay_chembl_id>  (29) 
CHEMBL648074

>  <assay_description>  (29) 
Displacement of [3H]dexamethasone from human androgen receptor

>  <parent_molecule_chembl_id>  (29) 
CHEMBL419633

>  <canonical_smiles>  (29) 
Cc1c(NS(C)(=O)=O)cccc1N(Cc1ccccc1)Cc1ccccc1

>  <standard_type>  (29) 
IC50

>  <standard_relation>  (29) 
=

>  <standard_value>  (29) 
170.0

>  <standard_units>  (29) 
nM

>  <target_pref_name>  (29) 
Androgen Receptor

>  <target_chembl_id>  (29) 
CHEMBL1871

>  <target_organism>  (29) 
Homo sapiens

>  <pchembl_median>  (29) 
5.355

$$$$
CHEMBL367364
     RDKit          2D

 22 25  0  0  0  0  0  0  0  0999 V2000
   -1.4504    4.3172    0.0000 O   0  0  0  0  0  0  0  0  0  0  0  0
   -1.9140    2.8906    0.0000 C   0  0  0  0  0  0  0  0  0  0  0  0
   -1.0323    1.6771    0.0000 C   0  0  0  0  0  0  0  0  0  0  0  0
    0.3943    1.2135    0.0000 C   0  0  0  0  0  0  0  0  0  0  0  0
    1.2760    0.0000    0.0000 C   0  0  0  0  0  0  0  0  0  0  0  0
    0.3943   -1.2135    0.0000 C   0  0  0  0  0  0  0  0  0  0  0  0
   -1.0323   -0.7500    0.0000 C   0  0  0  0  0  0  0  0  0  0  0  0
   -1.0323    0.7500    0.0000 C   0  0  0  0  0  0  0  0  0  0  0  0
   -1.9140    0.4635    0.0000 C   0  0  0  0  0  0  0  0  0  0  0  0
   -3.3405    0.9271    0.0000 C   0  0  0  0  0  0  0  0  0  0  0  0
   -4.5541    0.0454    0.0000 O   0  0  0  0  0  0  0  0  0  0  0  0
   -3.3405    2.4271    0.0000 N   0  0  0  0  0  0  0  0  0  0  0  0
   -4.5541    3.3087    0.0000 C   0  0  0  0  0  0  0  0  0  0  0  0
   -4.3973    4.8005    0.0000 C   0  0  0  0  0  0  0  0  0  0  0  0
   -5.6108    5.6822    0.0000 C   0  0  0  0  0  0  0  0  0  0  0  0
   -6.9811    5.0721    0.0000 C   0  0  0  0  0  0  0  0  0  0  0  0
   -7.1379    3.5803    0.0000 C   0  0  0  0  0  0  0  0  0  0  0  0
   -8.5082    2.9702    0.0000 C   0  0  0  0  0  0  0  0  0  0  0  0
   -9.8786    2.3601    0.0000 F   0  0  0  0  0  0  0  0  0  0  0  0
   -9.1183    4.3405    0.0000 F   0  0  0  0  0  0  0  0  0  0  0  0
   -7.8981    1.5999    0.0000 F   0  0  0  0  0  0  0  0  0  0  0  0
   -5.9244    2.6986    0.0000 C   0  0  0  0  0  0  0  0  0  0  0  0
  1  2  2  0
  3  2  1  1
  3  4  1  0
  4  5  1  0
  5  6  1  0
  6  7  1  0
  7  8  1  0
  7  9  1  0
  9 10  1  1
 10 11  2  0
 10 12  1  0
 12 13  1  0
 13 14  2  0
 14 15  1  0
 15 16  2  0
 16 17  1  0
 17 18  1  0
 18 19  1  0
 18 20  1  0
 18 21  1  0
 17 22  2  0
 12  2  1  0
 22 13  1  0
  9  3  1  0
  8  4  1  0
M  END
>  <assay_chembl_id>  (30) 
CHEMBL837992

>  <assay_description>  (30) 
Inhibition of human androgen receptor of breast carcinoma MDA-453 cells in reporter gene assay

>  <parent_molecule_chembl_id>  (30) 
CHEMBL367364

>  <canonical_smiles>  (30) 
O=C1[C@H]2C3CCC(C3)[C@H]2C(=O)N1c1cccc(C(F)(F)F)c1

>  <standard_type>  (30) 
IC50

>  <standard_relation>  (30) 
=

>  <standard_value>  (30) 
317.0

>  <standard_units>  (30) 
nM

>  <target_pref_name>  (30) 
Androgen Receptor

>  <target_chembl_id>  (30) 
CHEMBL1871

>  <target_organism>  (30) 
Homo sapiens

>  <pchembl_median>  (30) 
5.72

$$$$
CHEMBL368906
     RDKit          2D

 25 28  0  0  0  0  0  0  0  0999 V2000
   -1.4504    4.3172    0.0000 O   0  0  0  0  0  0  0  0  0  0  0  0
   -1.9140    2.8906    0.0000 C   0  0  0  0  0  0  0  0  0  0  0  0
   -1.0323    1.6771    0.0000 C   0  0  0  0  0  0  0  0  0  0  0  0
    0.3943    1.2135    0.0000 C   0  0  0  0  0  0  0  0  0  0  0  0
    1.2760    0.0000    0.0000 C   0  0  0  0  0  0  0  0  0  0  0  0
    0.3943   -1.2135    0.0000 C   0  0  0  0  0  0  0  0  0  0  0  0
   -1.0323   -0.7500    0.0000 C   0  0  0  0  0  0  0  0  0  0  0  0
   -1.0323    0.7500    0.0000 C   0  0  0  0  0  0  0  0  0  0  0  0
   -1.9140    0.4635    0.0000 C   0  0  0  0  0  0  0  0  0  0  0  0
   -3.3405    0.9271    0.0000 C   0  0  0  0  0  0  0  0  0  0  0  0
   -4.5541    0.0454    0.0000 O   0  0  0  0  0  0  0  0  0  0  0  0
   -3.3405    2.4271    0.0000 N   0  0  0  0  0  0  0  0  0  0  0  0
   -4.5541    3.3087    0.0000 C   0  0  0  0  0  0  0  0  0  0  0  0
   -4.3973    4.8005    0.0000 C   0  0  0  0  0  0  0  0  0  0  0  0
   -5.6108    5.6822    0.0000 C   0  0  0  0  0  0  0  0  0  0  0  0
   -6.9811    5.0721    0.0000 C   0  0  0  0  0  0  0  0  0  0  0  0
   -8.1947    5.9538    0.0000 N   0  0  0  0  0  4  0  0  0  0  0  0
   -9.5650    5.3437    0.0000 O   0  0  0  0  0  0  0  0  0  0  0  0
   -8.0379    7.4455    0.0000 O   0  0  0  0  0  1  0  0  0  0  0  0
   -7.1379    3.5803    0.0000 C   0  0  0  0  0  0  0  0  0  0  0  0
   -8.5082    2.9702    0.0000 C   0  0  0  0  0  0  0  0  0  0  0  0
   -9.8786    2.3601    0.0000 F   0  0  0  0  0  0  0  0  0  0  0  0
   -7.8981    1.5999    0.0000 F   0  0  0  0  0  0  0  0  0  0  0  0
   -9.1183    4.3405    0.0000 F   0  0  0  0  0  0  0  0  0  0  0  0
   -5.9244    2.6986    0.0000 C   0  0  0  0  0  0  0  0  0  0  0  0
  1  2  2  0
  3  2  1  1
  3  4  1  0
  4  5  1  0
  5  6  2  0
  6  7  1  0
  7  8  1  0
  7  9  1  0
  9 10  1  1
 10 11  2  0
 10 12  1  0
 12 13  1  0
 13 14  2  0
 14 15  1  0
 15 16  2  0
 16 17  1  0
 17 18  2  0
 17 19  1  0
 16 20  1  0
 20 21  1  0
 21 22  1  0
 21 23  1  0
 21 24  1  0
 20 25  2  0
 12  2  1  0
 25 13  1  0
  9  3  1  0
  8  4  1  0
M  CHG  2  17   1  19  -1
M  END
>  <assay_chembl_id>  (31) 
CHEMBL837992

>  <assay_description>  (31) 
Inhibition of human androgen receptor of breast carcinoma MDA-453 cells in reporter gene assay

>  <parent_molecule_chembl_id>  (31) 
CHEMBL368906

>  <canonical_smiles>  (31) 
O=C1[C@H]2C3C=CC(C3)[C@H]2C(=O)N1c1ccc([N+](=O)[O-])c(C(F)(F)F)c1

>  <standard_type>  (31) 
IC50

>  <standard_relation>  (31) 
=

>  <standard_value>  (31) 
119.0

>  <standard_units>  (31) 
nM

>  <target_pref_name>  (31) 
Androgen Receptor

>  <target_chembl_id>  (31) 
CHEMBL1871

>  <target_organism>  (31) 
Homo sapiens

>  <pchembl_median>  (31) 
5.83

$$$$
CHEMBL178333
     RDKit          2D

 25 28  0  0  0  0  0  0  0  0999 V2000
   -1.4504    4.3172    0.0000 O   0  0  0  0  0  0  0  0  0  0  0  0
   -1.9140    2.8906    0.0000 C   0  0  0  0  0  0  0  0  0  0  0  0
   -1.0323    1.6771    0.0000 C   0  0  0  0  0  0  0  0  0  0  0  0
    0.3943    1.2135    0.0000 C   0  0  0  0  0  0  0  0  0  0  0  0
    1.2760    0.0000    0.0000 C   0  0  0  0  0  0  0  0  0  0  0  0
    0.3943   -1.2135    0.0000 C   0  0  0  0  0  0  0  0  0  0  0  0
   -1.0323   -0.7500    0.0000 C   0  0  0  0  0  0  0  0  0  0  0  0
   -1.0323    0.7500    0.0000 C   0  0  0  0  0  0  0  0  0  0  0  0
   -1.9140    0.4635    0.0000 C   0  0  0  0  0  0  0  0  0  0  0  0
   -3.3405    0.9271    0.0000 C   0  0  0  0  0  0  0  0  0  0  0  0
   -4.5541    0.0454    0.0000 O   0  0  0  0  0  0  0  0  0  0  0  0
   -3.3405    2.4271    0.0000 N   0  0  0  0  0  0  0  0  0  0  0  0
   -4.5541    3.3087    0.0000 C   0  0  0  0  0  0  0  0  0  0  0  0
   -4.3973    4.8005    0.0000 C   0  0  0  0  0  0  0  0  0  0  0  0
   -5.6108    5.6822    0.0000 C   0  0  0  0  0  0  0  0  0  0  0  0
   -6.9811    5.0721    0.0000 C   0  0  0  0  0  0  0  0  0  0  0  0
   -8.1947    5.9538    0.0000 N   0  0  0  0  0  4  0  0  0  0  0  0
   -9.5650    5.3437    0.0000 O   0  0  0  0  0  0  0  0  0  0  0  0
   -8.0379    7.4455    0.0000 O   0  0  0  0  0  1  0  0  0  0  0  0
   -7.1379    3.5803    0.0000 C   0  0  0  0  0  0  0  0  0  0  0  0
   -8.5082    2.9702    0.0000 C   0  0  0  0  0  0  0  0  0  0  0  0
   -9.8786    2.3601    0.0000 F   0  0  0  0  0  0  0  0  0  0  0  0
   -7.8981    1.5999    0.0000 F   0  0  0  0  0  0  0  0  0  0  0  0
   -9.1183    4.3405    0.0000 F   0  0  0  0  0  0  0  0  0  0  0  0
   -5.9244    2.6986    0.0000 C   0  0  0  0  0  0  0  0  0  0  0  0
  1  2  2  0
  3  2  1  1
  3  4  1  0
  4  5  1  0
  5  6  1  0
  6  7  1  0
  7  8  1  0
  7  9  1  0
  9 10  1  1
 10 11  2  0
 10 12  1  0
 12 13  1  0
 13 14  2  0
 14 15  1  0
 15 16  2  0
 16 17  1  0
 17 18  2  0
 17 19  1  0
 16 20  1  0
 20 21  1  0
 21 22  1  0
 21 23  1  0
 21 24  1  0
 20 25  2  0
 12  2  1  0
 25 13  1  0
  9  3  1  0
  8  4  1  0
M  CHG  2  17   1  19  -1
M  END
>  <assay_chembl_id>  (32) 
CHEMBL837992

>  <assay_description>  (32) 
Inhibition of human androgen receptor of breast carcinoma MDA-453 cells in reporter gene assay

>  <parent_molecule_chembl_id>  (32) 
CHEMBL178333

>  <canonical_smiles>  (32) 
O=C1[C@H]2C3CCC(C3)[C@H]2C(=O)N1c1ccc([N+](=O)[O-])c(C(F)(F)F)c1

>  <standard_type>  (32) 
IC50

>  <standard_relation>  (32) 
=

>  <standard_value>  (32) 
114.0

>  <standard_units>  (32) 
nM

>  <target_pref_name>  (32) 
Androgen Receptor

>  <target_chembl_id>  (32) 
CHEMBL1871

>  <target_organism>  (32) 
Homo sapiens

>  <pchembl_median>  (32) 
6.17

$$$$
CHEMBL361222
     RDKit          2D

 23 26  0  0  0  0  0  0  0  0999 V2000
   -1.4504    4.3172    0.0000 O   0  0  0  0  0  0  0  0  0  0  0  0
   -1.9140    2.8906    0.0000 C   0  0  0  0  0  0  0  0  0  0  0  0
   -1.0323    1.6771    0.0000 C   0  0  0  0  0  0  0  0  0  0  0  0
    0.3943    1.2135    0.0000 C   0  0  0  0  0  0  0  0  0  0  0  0
    1.2760    0.0000    0.0000 C   0  0  0  0  0  0  0  0  0  0  0  0
    0.3943   -1.2135    0.0000 C   0  0  0  0  0  0  0  0  0  0  0  0
   -1.0323   -0.7500    0.0000 C   0  0  0  0  0  0  0  0  0  0  0  0
   -1.0323    0.7500    0.0000 C   0  0  0  0  0  0  0  0  0  0  0  0
   -1.9140    0.4635    0.0000 C   0  0  0  0  0  0  0  0  0  0  0  0
   -3.3405    0.9271    0.0000 C   0  0  0  0  0  0  0  0  0  0  0  0
   -4.5541    0.0454    0.0000 O   0  0  0  0  0  0  0  0  0  0  0  0
   -3.3405    2.4271    0.0000 N   0  0  0  0  0  0  0  0  0  0  0  0
   -4.5541    3.3087    0.0000 C   0  0  0  0  0  0  0  0  0  0  0  0
   -4.3973    4.8005    0.0000 C   0  0  0  0  0  0  0  0  0  0  0  0
   -5.6108    5.6822    0.0000 C   0  0  0  0  0  0  0  0  0  0  0  0
   -6.9811    5.0721    0.0000 C   0  0  0  0  0  0  0  0  0  0  0  0
   -8.1947    5.9538    0.0000 Br  0  0  0  0  0  0  0  0  0  0  0  0
   -7.1379    3.5803    0.0000 C   0  0  0  0  0  0  0  0  0  0  0  0
   -8.5082    2.9702    0.0000 C   0  0  0  0  0  0  0  0  0  0  0  0
   -9.8786    2.3601    0.0000 F   0  0  0  0  0  0  0  0  0  0  0  0
   -7.8981    1.5999    0.0000 F   0  0  0  0  0  0  0  0  0  0  0  0
   -9.1183    4.3405    0.0000 F   0  0  0  0  0  0  0  0  0  0  0  0
   -5.9244    2.6986    0.0000 C   0  0  0  0  0  0  0  0  0  0  0  0
  1  2  2  0
  3  2  1  1
  3  4  1  0
  4  5  1  0
  5  6  2  0
  6  7  1  0
  7  8  1  0
  7  9  1  0
  9 10  1  1
 10 11  2  0
 10 12  1  0
 12 13  1  0
 13 14  2  0
 14 15  1  0
 15 16  2  0
 16 17  1  0
 16 18  1  0
 18 19  1  0
 19 20  1  0
 19 21  1  0
 19 22  1  0
 18 23  2  0
 12  2  1  0
 23 13  1  0
  9  3  1  0
  8  4  1  0
M  END
>  <assay_chembl_id>  (33) 
CHEMBL837992

>  <assay_description>  (33) 
Inhibition of human androgen receptor of breast carcinoma MDA-453 cells in reporter gene assay

>  <parent_molecule_chembl_id>  (33) 
CHEMBL361222

>  <canonical_smiles>  (33) 
O=C1[C@H]2C3C=CC(C3)[C@H]2C(=O)N1c1ccc(Br)c(C(F)(F)F)c1

>  <standard_type>  (33) 
IC50

>  <standard_relation>  (33) 
=

>  <standard_value>  (33) 
146.0

>  <standard_units>  (33) 
nM

>  <target_pref_name>  (33) 
Androgen Receptor

>  <target_chembl_id>  (33) 
CHEMBL1871

>  <target_organism>  (33) 
Homo sapiens

>  <pchembl_median>  (33) 
7.2

$$$$
CHEMBL182236
     RDKit          2D

 20 23  0  0  0  0  0  0  0  0999 V2000
   -5.4540    7.1740    0.0000 C   0  0  0  0  0  0  0  0  0  0  0  0
   -5.6108    5.6822    0.0000 C   0  0  0  0  0  0  0  0  0  0  0  0
   -4.3973    4.8005    0.0000 C   0  0  0  0  0  0  0  0  0  0  0  0
   -4.5541    3.3087    0.0000 C   0  0  0  0  0  0  0  0  0  0  0  0
   -3.3405    2.4271    0.0000 N   0  0  0  0  0  0  0  0  0  0  0  0
   -1.9140    2.8906    0.0000 C   0  0  0  0  0  0  0  0  0  0  0  0
   -1.4504    4.3172    0.0000 O   0  0  0  0  0  0  0  0  0  0  0  0
   -1.0323    1.6771    0.0000 C   0  0  0  0  0  0  0  0  0  0  0  0
    0.3943    1.2135    0.0000 C   0  0  0  0  0  0  0  0  0  0  0  0
    1.2760    0.0000    0.0000 C   0  0  0  0  0  0  0  0  0  0  0  0
    0.3943   -1.2135    0.0000 C   0  0  0  0  0  0  0  0  0  0  0  0
   -1.0323   -0.7500    0.0000 C   0  0  0  0  0  0  0  0  0  0  0  0
   -1.0323    0.7500    0.0000 C   0  0  0  0  0  0  0  0  0  0  0  0
   -1.9140    0.4635    0.0000 C   0  0  0  0  0  0  0  0  0  0  0  0
   -3.3405    0.9271    0.0000 C   0  0  0  0  0  0  0  0  0  0  0  0
   -4.5541    0.0454    0.0000 O   0  0  0  0  0  0  0  0  0  0  0  0
   -5.9244    2.6986    0.0000 C   0  0  0  0  0  0  0  0  0  0  0  0
   -7.1379    3.5803    0.0000 C   0  0  0  0  0  0  0  0  0  0  0  0
   -6.9811    5.0721    0.0000 C   0  0  0  0  0  0  0  0  0  0  0  0
   -8.1947    5.9538    0.0000 Br  0  0  0  0  0  0  0  0  0  0  0  0
  1  2  1  0
  2  3  2  0
  3  4  1  0
  4  5  1  0
  5  6  1  0
  6  7  2  0
  8  6  1  1
  8  9  1  0
  9 10  1  0
 10 11  2  0
 11 12  1  0
 12 13  1  0
 12 14  1  0
 14 15  1  1
 15 16  2  0
  4 17  2  0
 17 18  1  0
 18 19  2  0
 19 20  1  0
 19  2  1  0
 15  5  1  0
 14  8  1  0
 13  9  1  0
M  END
>  <assay_chembl_id>  (34) 
CHEMBL837992

>  <assay_description>  (34) 
Inhibition of human androgen receptor of breast carcinoma MDA-453 cells in reporter gene assay

>  <parent_molecule_chembl_id>  (34) 
CHEMBL182236

>  <canonical_smiles>  (34) 
Cc1cc(N2C(=O)[C@H]3C4C=CC(C4)[C@H]3C2=O)ccc1Br

>  <standard_type>  (34) 
IC50

>  <standard_relation>  (34) 
=

>  <standard_value>  (34) 
220.0

>  <standard_units>  (34) 
nM

>  <target_pref_name>  (34) 
Androgen Receptor

>  <target_chembl_id>  (34) 
CHEMBL1871

>  <target_organism>  (34) 
Homo sapiens

>  <pchembl_median>  (34) 
6.315

$$$$
CHEMBL180859
     RDKit          2D

 20 23  0  0  0  0  0  0  0  0999 V2000
   -1.4504    4.3172    0.0000 O   0  0  0  0  0  0  0  0  0  0  0  0
   -1.9140    2.8906    0.0000 C   0  0  0  0  0  0  0  0  0  0  0  0
   -1.0323    1.6771    0.0000 C   0  0  0  0  0  0  0  0  0  0  0  0
    0.3943    1.2135    0.0000 C   0  0  0  0  0  0  0  0  0  0  0  0
    1.2760    0.0000    0.0000 C   0  0  0  0  0  0  0  0  0  0  0  0
    0.3943   -1.2135    0.0000 C   0  0  0  0  0  0  0  0  0  0  0  0
   -1.0323   -0.7500    0.0000 C   0  0  0  0  0  0  0  0  0  0  0  0
   -1.0323    0.7500    0.0000 C   0  0  0  0  0  0  0  0  0  0  0  0
   -1.9140    0.4635    0.0000 C   0  0  0  0  0  0  0  0  0  0  0  0
   -3.3405    0.9271    0.0000 C   0  0  0  0  0  0  0  0  0  0  0  0
   -4.5541    0.0454    0.0000 O   0  0  0  0  0  0  0  0  0  0  0  0
   -3.3405    2.4271    0.0000 N   0  0  0  0  0  0  0  0  0  0  0  0
   -4.5541    3.3087    0.0000 C   0  0  0  0  0  0  0  0  0  0  0  0
   -4.3973    4.8005    0.0000 C   0  0  0  0  0  0  0  0  0  0  0  0
   -5.6108    5.6822    0.0000 C   0  0  0  0  0  0  0  0  0  0  0  0
   -6.9811    5.0721    0.0000 C   0  0  0  0  0  0  0  0  0  0  0  0
   -8.1947    5.9538    0.0000 F   0  0  0  0  0  0  0  0  0  0  0  0
   -7.1379    3.5803    0.0000 C   0  0  0  0  0  0  0  0  0  0  0  0
   -8.5082    2.9702    0.0000 Cl  0  0  0  0  0  0  0  0  0  0  0  0
   -5.9244    2.6986    0.0000 C   0  0  0  0  0  0  0  0  0  0  0  0
  1  2  2  0
  3  2  1  1
  3  4  1  0
  4  5  1  0
  5  6  2  0
  6  7  1  0
  7  8  1  0
  7  9  1  0
  9 10  1  1
 10 11  2  0
 10 12  1  0
 12 13  1  0
 13 14  2  0
 14 15  1  0
 15 16  2  0
 16 17  1  0
 16 18  1  0
 18 19  1  0
 18 20  2  0
 12  2  1  0
 20 13  1  0
  9  3  1  0
  8  4  1  0
M  END
>  <assay_chembl_id>  (35) 
CHEMBL837992

>  <assay_description>  (35) 
Inhibition of human androgen receptor of breast carcinoma MDA-453 cells in reporter gene assay

>  <parent_molecule_chembl_id>  (35) 
CHEMBL180859

>  <canonical_smiles>  (35) 
O=C1[C@H]2C3C=CC(C3)[C@H]2C(=O)N1c1ccc(F)c(Cl)c1

>  <standard_type>  (35) 
IC50

>  <standard_relation>  (35) 
=

>  <standard_value>  (35) 
517.0

>  <standard_units>  (35) 
nM

>  <target_pref_name>  (35) 
Androgen Receptor

>  <target_chembl_id>  (35) 
CHEMBL1871

>  <target_organism>  (35) 
Homo sapiens

>  <pchembl_median>  (35) 
7.185

$$$$
CHEMBL178957
     RDKit          2D

 26 29  0  0  0  0  0  0  0  0999 V2000
   -1.4504    4.3172    0.0000 O   0  0  0  0  0  0  0  0  0  0  0  0
   -1.9140    2.8906    0.0000 C   0  0  0  0  0  0  0  0  0  0  0  0
   -1.0323    1.6771    0.0000 C   0  0  0  0  0  0  0  0  0  0  0  0
    0.3943    1.2135    0.0000 C   0  0  0  0  0  0  0  0  0  0  0  0
    1.2760    0.0000    0.0000 C   0  0  0  0  0  0  0  0  0  0  0  0
    0.3943   -1.2135    0.0000 C   0  0  0  0  0  0  0  0  0  0  0  0
   -1.0323   -0.7500    0.0000 C   0  0  0  0  0  0  0  0  0  0  0  0
   -1.0323    0.7500    0.0000 C   0  0  0  0  0  0  0  0  0  0  0  0
   -1.9140    0.4635    0.0000 C   0  0  0  0  0  0  0  0  0  0  0  0
   -3.3405    0.9271    0.0000 C   0  0  0  0  0  0  0  0  0  0  0  0
   -4.5541    0.0454    0.0000 O   0  0  0  0  0  0  0  0  0  0  0  0
   -3.3405    2.4271    0.0000 N   0  0  0  0  0  0  0  0  0  0  0  0
   -4.5541    3.3087    0.0000 C   0  0  0  0  0  0  0  0  0  0  0  0
   -4.3973    4.8005    0.0000 C   0  0  0  0  0  0  0  0  0  0  0  0
   -5.6108    5.6822    0.0000 C   0  0  0  0  0  0  0  0  0  0  0  0
   -5.4540    7.1740    0.0000 C   0  0  0  0  0  0  0  0  0  0  0  0
   -5.2972    8.6658    0.0000 F   0  0  0  0  0  0  0  0  0  0  0  0
   -3.9622    7.0172    0.0000 F   0  0  0  0  0  0  0  0  0  0  0  0
   -6.9458    7.3308    0.0000 F   0  0  0  0  0  0  0  0  0  0  0  0
   -6.9811    5.0721    0.0000 C   0  0  0  0  0  0  0  0  0  0  0  0
   -7.1379    3.5803    0.0000 C   0  0  0  0  0  0  0  0  0  0  0  0
   -8.5082    2.9702    0.0000 C   0  0  0  0  0  0  0  0  0  0  0  0
   -9.8786    2.3601    0.0000 F   0  0  0  0  0  0  0  0  0  0  0  0
   -9.1183    4.3405    0.0000 F   0  0  0  0  0  0  0  0  0  0  0  0
   -7.8981    1.5999    0.0000 F   0  0  0  0  0  0  0  0  0  0  0  0
   -5.9244    2.6986    0.0000 C   0  0  0  0  0  0  0  0  0  0  0  0
  1  2  2  0
  3  2  1  1
  3  4  1  0
  4  5  1  0
  5  6  2  0
  6  7  1  0
  7  8  1  0
  7  9  1  0
  9 10  1  1
 10 11  2  0
 10 12  1  0
 12 13  1  0
 13 14  2  0
 14 15  1  0
 15 16  1  0
 16 17  1  0
 16 18  1  0
 16 19  1  0
 15 20  2  0
 20 21  1  0
 21 22  1  0
 22 23  1  0
 22 24  1  0
 22 25  1  0
 21 26  2  0
 12  2  1  0
 26 13  1  0
  9  3  1  0
  8  4  1  0
M  END
>  <assay_chembl_id>  (36) 
CHEMBL837992

>  <assay_description>  (36) 
Inhibition of human androgen receptor of breast carcinoma MDA-453 cells in reporter gene assay

>  <parent_molecule_chembl_id>  (36) 
CHEMBL178957

>  <canonical_smiles>  (36) 
O=C1[C@H]2C3C=CC(C3)[C@H]2C(=O)N1c1cc(C(F)(F)F)cc(C(F)(F)F)c1

>  <standard_type>  (36) 
IC50

>  <standard_relation>  (36) 
=

>  <standard_value>  (36) 
1746.0

>  <standard_units>  (36) 
nM

>  <target_pref_name>  (36) 
Androgen Receptor

>  <target_chembl_id>  (36) 
CHEMBL1871

>  <target_organism>  (36) 
Homo sapiens

>  <pchembl_median>  (36) 
5.95

$$$$
CHEMBL178886
     RDKit          2D

 20 23  0  0  0  0  0  0  0  0999 V2000
   -1.4504    4.3172    0.0000 O   0  0  0  0  0  0  0  0  0  0  0  0
   -1.9140    2.8906    0.0000 C   0  0  0  0  0  0  0  0  0  0  0  0
   -1.0323    1.6771    0.0000 C   0  0  0  0  0  0  0  0  0  0  0  0
    0.3943    1.2135    0.0000 C   0  0  0  0  0  0  0  0  0  0  0  0
    1.2760    0.0000    0.0000 C   0  0  0  0  0  0  0  0  0  0  0  0
    0.3943   -1.2135    0.0000 C   0  0  0  0  0  0  0  0  0  0  0  0
   -1.0323   -0.7500    0.0000 C   0  0  0  0  0  0  0  0  0  0  0  0
   -1.0323    0.7500    0.0000 C   0  0  0  0  0  0  0  0  0  0  0  0
   -1.9140    0.4635    0.0000 C   0  0  0  0  0  0  0  0  0  0  0  0
   -3.3405    0.9271    0.0000 C   0  0  0  0  0  0  0  0  0  0  0  0
   -4.5541    0.0454    0.0000 O   0  0  0  0  0  0  0  0  0  0  0  0
   -3.3405    2.4271    0.0000 N   0  0  0  0  0  0  0  0  0  0  0  0
   -4.5541    3.3087    0.0000 C   0  0  0  0  0  0  0  0  0  0  0  0
   -4.3973    4.8005    0.0000 C   0  0  0  0  0  0  0  0  0  0  0  0
   -5.6108    5.6822    0.0000 C   0  0  0  0  0  0  0  0  0  0  0  0
   -5.4540    7.1740    0.0000 Cl  0  0  0  0  0  0  0  0  0  0  0  0
   -6.9811    5.0721    0.0000 C   0  0  0  0  0  0  0  0  0  0  0  0
   -7.1379    3.5803    0.0000 C   0  0  0  0  0  0  0  0  0  0  0  0
   -8.5082    2.9702    0.0000 Cl  0  0  0  0  0  0  0  0  0  0  0  0
   -5.9244    2.6986    0.0000 C   0  0  0  0  0  0  0  0  0  0  0  0
  1  2  2  0
  3  2  1  1
  3  4  1  0
  4  5  1  0
  5  6  2  0
  6  7  1  0
  7  8  1  0
  7  9  1  0
  9 10  1  1
 10 11  2  0
 10 12  1  0
 12 13  1  0
 13 14  2  0
 14 15  1  0
 15 16  1  0
 15 17  2  0
 17 18  1  0
 18 19  1  0
 18 20  2  0
 12  2  1  0
 20 13  1  0
  9  3  1  0
  8  4  1  0
M  END
>  <assay_chembl_id>  (37) 
CHEMBL837992

>  <assay_description>  (37) 
Inhibition of human androgen receptor of breast carcinoma MDA-453 cells in reporter gene assay

>  <parent_molecule_chembl_id>  (37) 
CHEMBL178886

>  <canonical_smiles>  (37) 
O=C1[C@H]2C3C=CC(C3)[C@H]2C(=O)N1c1cc(Cl)cc(Cl)c1

>  <standard_type>  (37) 
IC50

>  <standard_relation>  (37) 
=

>  <standard_value>  (37) 
307.0

>  <standard_units>  (37) 
nM

>  <target_pref_name>  (37) 
Androgen Receptor

>  <target_chembl_id>  (37) 
CHEMBL1871

>  <target_organism>  (37) 
Homo sapiens

>  <pchembl_median>  (37) 
5.52

$$$$
CHEMBL181722
     RDKit          2D

 22 26  0  0  0  0  0  0  0  0999 V2000
   -1.4504    4.3172    0.0000 O   0  0  0  0  0  0  0  0  0  0  0  0
   -1.9140    2.8906    0.0000 C   0  0  0  0  0  0  0  0  0  0  0  0
   -1.0323    1.6771    0.0000 C   0  0  0  0  0  0  0  0  0  0  0  0
    0.3943    1.2135    0.0000 C   0  0  0  0  0  0  0  0  0  0  0  0
    1.2760    0.0000    0.0000 C   0  0  0  0  0  0  0  0  0  0  0  0
    0.3943   -1.2135    0.0000 C   0  0  0  0  0  0  0  0  0  0  0  0
   -1.0323   -0.7500    0.0000 C   0  0  0  0  0  0  0  0  0  0  0  0
   -1.0323    0.7500    0.0000 C   0  0  0  0  0  0  0  0  0  0  0  0
   -1.9140    0.4635    0.0000 C   0  0  0  0  0  0  0  0  0  0  0  0
   -3.3405    0.9271    0.0000 C   0  0  0  0  0  0  0  0  0  0  0  0
   -4.5541    0.0454    0.0000 O   0  0  0  0  0  0  0  0  0  0  0  0
   -3.3405    2.4271    0.0000 N   0  0  0  0  0  0  0  0  0  0  0  0
   -4.5541    3.3087    0.0000 C   0  0  0  0  0  0  0  0  0  0  0  0
   -4.3973    4.8005    0.0000 C   0  0  0  0  0  0  0  0  0  0  0  0
   -5.6108    5.6822    0.0000 C   0  0  0  0  0  0  0  0  0  0  0  0
   -6.9811    5.0721    0.0000 C   0  0  0  0  0  0  0  0  0  0  0  0
   -8.1947    5.9538    0.0000 C   0  0  0  0  0  0  0  0  0  0  0  0
   -9.5650    5.3437    0.0000 C   0  0  0  0  0  0  0  0  0  0  0  0
   -9.7218    3.8519    0.0000 C   0  0  0  0  0  0  0  0  0  0  0  0
   -8.5082    2.9702    0.0000 N   0  0  0  0  0  0  0  0  0  0  0  0
   -7.1379    3.5803    0.0000 C   0  0  0  0  0  0  0  0  0  0  0  0
   -5.9244    2.6986    0.0000 C   0  0  0  0  0  0  0  0  0  0  0  0
  1  2  2  0
  3  2  1  1
  3  4  1  0
  4  5  1  0
  5  6  2  0
  6  7  1  0
  7  8  1  0
  7  9  1  0
  9 10  1  1
 10 11  2  0
 10 12  1  0
 12 13  1  0
 13 14  2  0
 14 15  1  0
 15 16  2  0
 16 17  1  0
 17 18  2  0
 18 19  1  0
 19 20  2  0
 20 21  1  0
 21 22  2  0
 12  2  1  0
 22 13  1  0
  9  3  1  0
 21 16  1  0
  8  4  1  0
M  END
>  <assay_chembl_id>  (38) 
CHEMBL837992

>  <assay_description>  (38) 
Inhibition of human androgen receptor of breast carcinoma MDA-453 cells in reporter gene assay

>  <parent_molecule_chembl_id>  (38) 
CHEMBL181722

>  <canonical_smiles>  (38) 
O=C1[C@H]2C3C=CC(C3)[C@H]2C(=O)N1c1ccc2cccnc2c1

>  <standard_type>  (38) 
IC50

>  <standard_relation>  (38) 
=

>  <standard_value>  (38) 
1038.0

>  <standard_units>  (38) 
nM

>  <target_pref_name>  (38) 
Androgen Receptor

>  <target_chembl_id>  (38) 
CHEMBL1871

>  <target_organism>  (38) 
Homo sapiens

>  <pchembl_median>  (38) 
6.3

$$$$
CHEMBL181674
     RDKit          2D

 22 26  0  0  0  0  0  0  0  0999 V2000
   -1.4504    4.3172    0.0000 O   0  0  0  0  0  0  0  0  0  0  0  0
   -1.9140    2.8906    0.0000 C   0  0  0  0  0  0  0  0  0  0  0  0
   -1.0323    1.6771    0.0000 C   0  0  0  0  0  0  0  0  0  0  0  0
    0.3943    1.2135    0.0000 C   0  0  0  0  0  0  0  0  0  0  0  0
    1.2760    0.0000    0.0000 C   0  0  0  0  0  0  0  0  0  0  0  0
    0.3943   -1.2135    0.0000 C   0  0  0  0  0  0  0  0  0  0  0  0
   -1.0323   -0.7500    0.0000 C   0  0  0  0  0  0  0  0  0  0  0  0
   -1.0323    0.7500    0.0000 C   0  0  0  0  0  0  0  0  0  0  0  0
   -1.9140    0.4635    0.0000 C   0  0  0  0  0  0  0  0  0  0  0  0
   -3.3405    0.9271    0.0000 C   0  0  0  0  0  0  0  0  0  0  0  0
   -4.5541    0.0454    0.0000 O   0  0  0  0  0  0  0  0  0  0  0  0
   -3.3405    2.4271    0.0000 N   0  0  0  0  0  0  0  0  0  0  0  0
   -4.5541    3.3087    0.0000 C   0  0  0  0  0  0  0  0  0  0  0  0
   -4.3973    4.8005    0.0000 C   0  0  0  0  0  0  0  0  0  0  0  0
   -5.6108    5.6822    0.0000 C   0  0  0  0  0  0  0  0  0  0  0  0
   -6.9811    5.0721    0.0000 C   0  0  0  0  0  0  0  0  0  0  0  0
   -8.1947    5.9538    0.0000 C   0  0  0  0  0  0  0  0  0  0  0  0
   -9.5650    5.3437    0.0000 C   0  0  0  0  0  0  0  0  0  0  0  0
   -9.7218    3.8519    0.0000 C   0  0  0  0  0  0  0  0  0  0  0  0
   -8.5082    2.9702    0.0000 C   0  0  0  0  0  0  0  0  0  0  0  0
   -7.1379    3.5803    0.0000 C   0  0  0  0  0  0  0  0  0  0  0  0
   -5.9244    2.6986    0.0000 C   0  0  0  0  0  0  0  0  0  0  0  0
  1  2  2  0
  3  2  1  1
  3  4  1  0
  4  5  1  0
  5  6  2  0
  6  7  1  0
  7  8  1  0
  7  9  1  0
  9 10  1  1
 10 11  2  0
 10 12  1  0
 12 13  1  0
 13 14  2  0
 14 15  1  0
 15 16  2  0
 16 17  1  0
 17 18  2  0
 18 19  1  0
 19 20  2  0
 20 21  1  0
 21 22  2  0
 12  2  1  0
 22 13  1  0
  9  3  1  0
 21 16  1  0
  8  4  1  0
M  END
>  <assay_chembl_id>  (39) 
CHEMBL837992

>  <assay_description>  (39) 
Inhibition of human androgen receptor of breast carcinoma MDA-453 cells in reporter gene assay

>  <parent_molecule_chembl_id>  (39) 
CHEMBL181674

>  <canonical_smiles>  (39) 
O=C1[C@H]2C3C=CC(C3)[C@H]2C(=O)N1c1ccc2ccccc2c1

>  <standard_type>  (39) 
IC50

>  <standard_relation>  (39) 
=

>  <standard_value>  (39) 
1210.0

>  <standard_units>  (39) 
nM

>  <target_pref_name>  (39) 
Androgen Receptor

>  <target_chembl_id>  (39) 
CHEMBL1871

>  <target_organism>  (39) 
Homo sapiens

>  <pchembl_median>  (39) 
5.7

$$$$
CHEMBL369509
     RDKit          2D

 23 27  0  0  0  0  0  0  0  0999 V2000
   -1.4504    4.3172    0.0000 O   0  0  0  0  0  0  0  0  0  0  0  0
   -1.9140    2.8906    0.0000 C   0  0  0  0  0  0  0  0  0  0  0  0
   -1.0323    1.6771    0.0000 C   0  0  0  0  0  0  0  0  0  0  0  0
    0.3943    1.2135    0.0000 C   0  0  0  0  0  0  0  0  0  0  0  0
    1.2760    0.0000    0.0000 C   0  0  0  0  0  0  0  0  0  0  0  0
    0.3943   -1.2135    0.0000 C   0  0  0  0  0  0  0  0  0  0  0  0
   -1.0323   -0.7500    0.0000 C   0  0  0  0  0  0  0  0  0  0  0  0
   -1.0323    0.7500    0.0000 C   0  0  0  0  0  0  0  0  0  0  0  0
   -1.9140    0.4635    0.0000 C   0  0  0  0  0  0  0  0  0  0  0  0
   -3.3405    0.9271    0.0000 C   0  0  0  0  0  0  0  0  0  0  0  0
   -4.5541    0.0454    0.0000 O   0  0  0  0  0  0  0  0  0  0  0  0
   -3.3405    2.4271    0.0000 N   0  0  0  0  0  0  0  0  0  0  0  0
   -4.5541    3.3087    0.0000 C   0  0  0  0  0  0  0  0  0  0  0  0
   -4.3973    4.8005    0.0000 C   0  0  0  0  0  0  0  0  0  0  0  0
   -5.6108    5.6822    0.0000 C   0  0  0  0  0  0  0  0  0  0  0  0
   -6.9811    5.0721    0.0000 C   0  0  0  0  0  0  0  0  0  0  0  0
   -8.1947    5.9538    0.0000 O   0  0  0  0  0  0  0  0  0  0  0  0
   -7.1379    3.5803    0.0000 C   0  0  0  0  0  0  0  0  0  0  0  0
   -8.5082    2.9702    0.0000 N   0  0  0  0  0  0  0  0  0  0  0  0
   -8.6650    1.4784    0.0000 C   0  0  0  0  0  0  0  0  0  0  0  0
   -7.4515    0.5967    0.0000 C   0  0  0  0  0  0  0  0  0  0  0  0
   -6.0812    1.2068    0.0000 C   0  0  0  0  0  0  0  0  0  0  0  0
   -5.9244    2.6986    0.0000 C   0  0  0  0  0  0  0  0  0  0  0  0
  1  2  2  0
  3  2  1  1
  3  4  1  0
  4  5  1  0
  5  6  2  0
  6  7  1  0
  7  8  1  0
  7  9  1  0
  9 10  1  1
 10 11  2  0
 10 12  1  0
 12 13  1  0
 13 14  2  0
 14 15  1  0
 15 16  2  0
 16 17  1  0
 16 18  1  0
 18 19  2  0
 19 20  1  0
 20 21  2  0
 21 22  1  0
 22 23  2  0
 12  2  1  0
 23 13  1  0
  9  3  1  0
 23 18  1  0
  8  4  1  0
M  END
>  <assay_chembl_id>  (40) 
CHEMBL837992

>  <assay_description>  (40) 
Inhibition of human androgen receptor of breast carcinoma MDA-453 cells in reporter gene assay

>  <parent_molecule_chembl_id>  (40) 
CHEMBL369509

>  <canonical_smiles>  (40) 
O=C1[C@H]2C3C=CC(C3)[C@H]2C(=O)N1c1ccc(O)c2ncccc12

>  <standard_type>  (40) 
IC50

>  <standard_relation>  (40) 
=

>  <standard_value>  (40) 
418.0

>  <standard_units>  (40) 
nM

>  <target_pref_name>  (40) 
Androgen Receptor

>  <target_chembl_id>  (40) 
CHEMBL1871

>  <target_organism>  (40) 
Homo sapiens

>  <pchembl_median>  (40) 
5.7

$$$$
CHEMBL359911
     RDKit          2D

 22 26  0  0  0  0  0  0  0  0999 V2000
   -1.4504    4.3172    0.0000 O   0  0  0  0  0  0  0  0  0  0  0  0
   -1.9140    2.8906    0.0000 C   0  0  0  0  0  0  0  0  0  0  0  0
   -1.0323    1.6771    0.0000 C   0  0  0  0  0  0  0  0  0  0  0  0
    0.3943    1.2135    0.0000 C   0  0  0  0  0  0  0  0  0  0  0  0
    1.2760    0.0000    0.0000 C   0  0  0  0  0  0  0  0  0  0  0  0
    0.3943   -1.2135    0.0000 C   0  0  0  0  0  0  0  0  0  0  0  0
   -1.0323   -0.7500    0.0000 C   0  0  0  0  0  0  0  0  0  0  0  0
   -1.0323    0.7500    0.0000 C   0  0  0  0  0  0  0  0  0  0  0  0
   -1.9140    0.4635    0.0000 C   0  0  0  0  0  0  0  0  0  0  0  0
   -3.3405    0.9271    0.0000 C   0  0  0  0  0  0  0  0  0  0  0  0
   -4.5541    0.0454    0.0000 O   0  0  0  0  0  0  0  0  0  0  0  0
   -3.3405    2.4271    0.0000 N   0  0  0  0  0  0  0  0  0  0  0  0
   -4.5541    3.3087    0.0000 C   0  0  0  0  0  0  0  0  0  0  0  0
   -4.3973    4.8005    0.0000 C   0  0  0  0  0  0  0  0  0  0  0  0
   -5.6108    5.6822    0.0000 C   0  0  0  0  0  0  0  0  0  0  0  0
   -6.9811    5.0721    0.0000 C   0  0  0  0  0  0  0  0  0  0  0  0
   -8.1947    5.9538    0.0000 C   0  0  0  0  0  0  0  0  0  0  0  0
   -9.5650    5.3437    0.0000 C   0  0  0  0  0  0  0  0  0  0  0  0
   -9.7218    3.8519    0.0000 C   0  0  0  0  0  0  0  0  0  0  0  0
   -8.5082    2.9702    0.0000 C   0  0  0  0  0  0  0  0  0  0  0  0
   -7.1379    3.5803    0.0000 C   0  0  0  0  0  0  0  0  0  0  0  0
   -5.9244    2.6986    0.0000 C   0  0  0  0  0  0  0  0  0  0  0  0
  1  2  2  0
  3  2  1  1
  3  4  1  0
  4  5  1  0
  5  6  1  0
  6  7  1  0
  7  8  1  0
  7  9  1  0
  9 10  1  1
 10 11  2  0
 10 12  1  0
 12 13  1  0
 13 14  2  0
 14 15  1  0
 15 16  2  0
 16 17  1  0
 17 18  2  0
 18 19  1  0
 19 20  2  0
 20 21  1  0
 21 22  2  0
 12  2  1  0
 22 13  1  0
  9  3  1  0
 21 16  1  0
  8  4  1  0
M  END
>  <assay_chembl_id>  (41) 
CHEMBL837992

>  <assay_description>  (41) 
Inhibition of human androgen receptor of breast carcinoma MDA-453 cells in reporter gene assay

>  <parent_molecule_chembl_id>  (41) 
CHEMBL359911

>  <canonical_smiles>  (41) 
O=C1[C@H]2C3CCC(C3)[C@H]2C(=O)N1c1ccc2ccccc2c1

>  <standard_type>  (41) 
IC50

>  <standard_relation>  (41) 
=

>  <standard_value>  (41) 
1200.0

>  <standard_units>  (41) 
nM

>  <target_pref_name>  (41) 
Androgen Receptor

>  <target_chembl_id>  (41) 
CHEMBL1871

>  <target_organism>  (41) 
Homo sapiens

>  <pchembl_median>  (41) 
8.095

$$$$
CHEMBL182186
     RDKit          2D

 21 24  0  0  0  0  0  0  0  0999 V2000
   -1.4504    4.3172    0.0000 O   0  0  0  0  0  0  0  0  0  0  0  0
   -1.9140    2.8906    0.0000 C   0  0  0  0  0  0  0  0  0  0  0  0
   -1.0323    1.6771    0.0000 C   0  0  0  0  0  0  0  0  0  0  0  0
    0.3943    1.2135    0.0000 C   0  0  0  0  0  0  0  0  0  0  0  0
    1.2760    0.0000    0.0000 C   0  0  0  0  0  0  0  0  0  0  0  0
    0.3943   -1.2135    0.0000 C   0  0  0  0  0  0  0  0  0  0  0  0
   -1.0323   -0.7500    0.0000 C   0  0  0  0  0  0  0  0  0  0  0  0
   -1.0323    0.7500    0.0000 C   0  0  0  0  0  0  0  0  0  0  0  0
   -1.9140    0.4635    0.0000 C   0  0  0  0  0  0  0  0  0  0  0  0
   -3.3405    0.9271    0.0000 C   0  0  0  0  0  0  0  0  0  0  0  0
   -4.5541    0.0454    0.0000 O   0  0  0  0  0  0  0  0  0  0  0  0
   -3.3405    2.4271    0.0000 N   0  0  0  0  0  0  0  0  0  0  0  0
   -4.5541    3.3087    0.0000 C   0  0  0  0  0  0  0  0  0  0  0  0
   -4.3973    4.8005    0.0000 C   0  0  0  0  0  0  0  0  0  0  0  0
   -5.6108    5.6822    0.0000 C   0  0  0  0  0  0  0  0  0  0  0  0
   -6.9811    5.0721    0.0000 C   0  0  0  0  0  0  0  0  0  0  0  0
   -8.1947    5.9538    0.0000 N   0  0  0  0  0  4  0  0  0  0  0  0
   -9.5650    5.3437    0.0000 O   0  0  0  0  0  0  0  0  0  0  0  0
   -8.0379    7.4455    0.0000 O   0  0  0  0  0  1  0  0  0  0  0  0
   -7.1379    3.5803    0.0000 C   0  0  0  0  0  0  0  0  0  0  0  0
   -5.9244    2.6986    0.0000 C   0  0  0  0  0  0  0  0  0  0  0  0
  1  2  2  0
  3  2  1  1
  3  4  1  0
  4  5  1  0
  5  6  2  0
  6  7  1  0
  7  8  1  0
  7  9  1  0
  9 10  1  1
 10 11  2  0
 10 12  1  0
 12 13  1  0
 13 14  2  0
 14 15  1  0
 15 16  2  0
 16 17  1  0
 17 18  2  0
 17 19  1  0
 16 20  1  0
 20 21  2  0
 12  2  1  0
 21 13  1  0
  9  3  1  0
  8  4  1  0
M  CHG  2  17   1  19  -1
M  END
>  <assay_chembl_id>  (42) 
CHEMBL837992

>  <assay_description>  (42) 
Inhibition of human androgen receptor of breast carcinoma MDA-453 cells in reporter gene assay

>  <parent_molecule_chembl_id>  (42) 
CHEMBL182186

>  <canonical_smiles>  (42) 
O=C1[C@H]2C3C=CC(C3)[C@H]2C(=O)N1c1ccc([N+](=O)[O-])cc1

>  <standard_type>  (42) 
IC50

>  <standard_relation>  (42) 
=

>  <standard_value>  (42) 
664.0

>  <standard_units>  (42) 
nM

>  <target_pref_name>  (42) 
Androgen Receptor

>  <target_chembl_id>  (42) 
CHEMBL1871

>  <target_organism>  (42) 
Homo sapiens

>  <pchembl_median>  (42) 
5.81

$$$$
CHEMBL178469
     RDKit          2D

 22 25  0  0  0  0  0  0  0  0999 V2000
   -1.4504    4.3172    0.0000 O   0  0  0  0  0  0  0  0  0  0  0  0
   -1.9140    2.8906    0.0000 C   0  0  0  0  0  0  0  0  0  0  0  0
   -1.0323    1.6771    0.0000 C   0  0  0  0  0  0  0  0  0  0  0  0
    0.3943    1.2135    0.0000 C   0  0  0  0  0  0  0  0  0  0  0  0
    1.2760    0.0000    0.0000 C   0  0  0  0  0  0  0  0  0  0  0  0
    0.3943   -1.2135    0.0000 C   0  0  0  0  0  0  0  0  0  0  0  0
   -1.0323   -0.7500    0.0000 C   0  0  0  0  0  0  0  0  0  0  0  0
   -1.0323    0.7500    0.0000 C   0  0  0  0  0  0  0  0  0  0  0  0
   -1.9140    0.4635    0.0000 C   0  0  0  0  0  0  0  0  0  0  0  0
   -3.3405    0.9271    0.0000 C   0  0  0  0  0  0  0  0  0  0  0  0
   -4.5541    0.0454    0.0000 O   0  0  0  0  0  0  0  0  0  0  0  0
   -3.3405    2.4271    0.0000 N   0  0  0  0  0  0  0  0  0  0  0  0
   -4.5541    3.3087    0.0000 C   0  0  0  0  0  0  0  0  0  0  0  0
   -4.3973    4.8005    0.0000 C   0  0  0  0  0  0  0  0  0  0  0  0
   -5.6108    5.6822    0.0000 C   0  0  0  0  0  0  0  0  0  0  0  0
   -6.9811    5.0721    0.0000 C   0  0  0  0  0  0  0  0  0  0  0  0
   -7.1379    3.5803    0.0000 C   0  0  0  0  0  0  0  0  0  0  0  0
   -8.5082    2.9702    0.0000 C   0  0  0  0  0  0  0  0  0  0  0  0
   -9.8786    2.3601    0.0000 F   0  0  0  0  0  0  0  0  0  0  0  0
   -9.1183    4.3405    0.0000 F   0  0  0  0  0  0  0  0  0  0  0  0
   -7.8981    1.5999    0.0000 F   0  0  0  0  0  0  0  0  0  0  0  0
   -5.9244    2.6986    0.0000 C   0  0  0  0  0  0  0  0  0  0  0  0
  1  2  2  0
  3  2  1  1
  3  4  1  0
  4  5  1  0
  5  6  2  0
  6  7  1  0
  7  8  1  0
  7  9  1  0
  9 10  1  1
 10 11  2  0
 10 12  1  0
 12 13  1  0
 13 14  2  0
 14 15  1  0
 15 16  2  0
 16 17  1  0
 17 18  1  0
 18 19  1  0
 18 20  1  0
 18 21  1  0
 17 22  2  0
 12  2  1  0
 22 13  1  0
  9  3  1  0
  8  4  1  0
M  END
>  <assay_chembl_id>  (43) 
CHEMBL837992

>  <assay_description>  (43) 
Inhibition of human androgen receptor of breast carcinoma MDA-453 cells in reporter gene assay

>  <parent_molecule_chembl_id>  (43) 
CHEMBL178469

>  <canonical_smiles>  (43) 
O=C1[C@H]2C3C=CC(C3)[C@H]2C(=O)N1c1cccc(C(F)(F)F)c1

>  <standard_type>  (43) 
IC50

>  <standard_relation>  (43) 
=

>  <standard_value>  (43) 
744.0

>  <standard_units>  (43) 
nM

>  <target_pref_name>  (43) 
Androgen Receptor

>  <target_chembl_id>  (43) 
CHEMBL1871

>  <target_organism>  (43) 
Homo sapiens

>  <pchembl_median>  (43) 
4.4

$$$$
CHEMBL184981
     RDKit          2D

 21 24  0  0  0  0  0  0  0  0999 V2000
   -1.4418   -3.8810    0.0000 O   0  0  0  0  0  0  0  0  0  0  0  0
   -1.7537   -2.4138    0.0000 C   0  0  0  0  0  0  0  0  0  0  0  0
   -0.7500   -1.2990    0.0000 C   0  0  0  0  0  0  0  0  0  0  0  0
    0.7500   -1.2990    0.0000 C   0  0  0  0  0  0  0  0  0  0  0  0
    1.5000    0.0000    0.0000 C   0  0  0  0  0  0  0  0  0  0  0  0
    0.7500    1.2990    0.0000 C   0  0  0  0  0  0  0  0  0  0  0  0
   -0.7500    1.2990    0.0000 C   0  0  0  0  0  0  0  0  0  0  0  0
   -0.8000    0.0000    0.0000 C   0  0  0  0  0  0  0  0  0  0  0  0
   -0.4000   -0.6928    0.0000 C   0  0  0  0  0  0  0  0  0  0  0  0
   -1.5000   -0.0000    0.0000 C   0  0  0  0  0  0  0  0  0  0  0  0
   -2.9672   -0.3119    0.0000 C   0  0  0  0  0  0  0  0  0  0  0  0
   -4.0819    0.6918    0.0000 O   0  0  0  0  0  0  0  0  0  0  0  0
   -3.1240   -1.8037    0.0000 N   0  0  0  0  0  0  0  0  0  0  0  0
   -4.4231   -2.5537    0.0000 C   0  0  0  0  0  0  0  0  0  0  0  0
   -5.7221   -1.8037    0.0000 C   0  0  0  0  0  0  0  0  0  0  0  0
   -7.0211   -2.5537    0.0000 C   0  0  0  0  0  0  0  0  0  0  0  0
   -7.0211   -4.0537    0.0000 C   0  0  0  0  0  0  0  0  0  0  0  0
   -8.3202   -4.8037    0.0000 Cl  0  0  0  0  0  0  0  0  0  0  0  0
   -5.7221   -4.8037    0.0000 C   0  0  0  0  0  0  0  0  0  0  0  0
   -5.7221   -6.3037    0.0000 Cl  0  0  0  0  0  0  0  0  0  0  0  0
   -4.4231   -4.0537    0.0000 C   0  0  0  0  0  0  0  0  0  0  0  0
  1  2  2  0
  3  2  1  6
  3  4  1  0
  4  5  1  0
  5  6  2  0
  6  7  1  0
  7  8  1  0
  8  9  1  0
  7 10  1  0
 10 11  1  6
 11 12  2  0
 11 13  1  0
 13 14  1  0
 14 15  2  0
 15 16  1  0
 16 17  2  0
 17 18  1  0
 17 19  1  0
 19 20  1  0
 19 21  2  0
 13  2  1  0
 21 14  1  0
 10  3  1  0
  9  4  1  0
M  END
>  <assay_chembl_id>  (44) 
CHEMBL831105

>  <assay_description>  (44) 
Inhibition of androgen receptor in human MDA-453 cells

>  <parent_molecule_chembl_id>  (44) 
CHEMBL184981

>  <canonical_smiles>  (44) 
O=C1[C@H]2C3C=CC(CC3)[C@H]2C(=O)N1c1ccc(Cl)c(Cl)c1

>  <standard_type>  (44) 
IC50

>  <standard_relation>  (44) 
=

>  <standard_value>  (44) 
150.0

>  <standard_units>  (44) 
nM

>  <target_pref_name>  (44) 
Androgen Receptor

>  <target_chembl_id>  (44) 
CHEMBL1871

>  <target_organism>  (44) 
Homo sapiens

>  <pchembl_median>  (44) 
7.89

$$$$
CHEMBL183173
     RDKit          2D

 28 32  0  0  0  0  0  0  0  0999 V2000
    3.0000    0.0000    0.0000 C   0  0  0  0  0  0  0  0  0  0  0  0
    1.5000    0.0000    0.0000 N   0  0  0  0  0  0  0  0  0  0  0  0
    0.7500   -1.2990    0.0000 C   0  0  0  0  0  0  0  0  0  0  0  0
    1.5000   -2.5981    0.0000 O   0  0  0  0  0  0  0  0  0  0  0  0
   -0.7500   -1.2990    0.0000 C   0  0  0  0  0  0  0  0  0  0  0  0
   -0.3828   -0.5621    0.0000 C   0  0  0  0  0  0  0  0  0  0  0  0
    0.2954    0.6125    0.0000 C   0  0  0  0  0  0  0  0  0  0  0  0
    0.7500    1.2990    0.0000 C   0  0  0  0  0  0  0  0  0  0  0  0
   -0.7500    1.2990    0.0000 C   0  0  0  0  0  0  0  0  0  0  0  0
   -1.7537    2.4138    0.0000 C   0  0  0  0  0  0  0  0  0  0  0  0
   -1.4418    3.8810    0.0000 O   0  0  0  0  0  0  0  0  0  0  0  0
   -3.1240    1.8037    0.0000 N   0  0  0  0  0  0  0  0  0  0  0  0
   -4.4231    2.5537    0.0000 C   0  0  0  0  0  0  0  0  0  0  0  0
   -4.4231    4.0537    0.0000 C   0  0  0  0  0  0  0  0  0  0  0  0
   -5.7221    4.8037    0.0000 C   0  0  0  0  0  0  0  0  0  0  0  0
   -7.0211    4.0537    0.0000 C   0  0  0  0  0  0  0  0  0  0  0  0
   -8.3202    4.8037    0.0000 N   0  0  0  0  0  4  0  0  0  0  0  0
   -9.6192    4.0537    0.0000 O   0  0  0  0  0  0  0  0  0  0  0  0
   -8.3202    6.3037    0.0000 O   0  0  0  0  0  1  0  0  0  0  0  0
   -7.0211    2.5537    0.0000 C   0  0  0  0  0  0  0  0  0  0  0  0
   -8.3202    1.8037    0.0000 C   0  0  0  0  0  0  0  0  0  0  0  0
   -8.3202    0.3037    0.0000 C   0  0  0  0  0  0  0  0  0  0  0  0
   -7.0211   -0.4463    0.0000 C   0  0  0  0  0  0  0  0  0  0  0  0
   -5.7221    0.3037    0.0000 C   0  0  0  0  0  0  0  0  0  0  0  0
   -5.7221    1.8037    0.0000 C   0  0  0  0  0  0  0  0  0  0  0  0
   -2.9672    0.3119    0.0000 C   0  0  0  0  0  0  0  0  0  0  0  0
   -4.0819   -0.6918    0.0000 O   0  0  0  0  0  0  0  0  0  0  0  0
   -1.5000    0.0000    0.0000 C   0  0  0  0  0  0  0  0  0  0  0  0
  1  2  1  0
  2  3  1  0
  3  4  2  0
  3  5  1  0
  5  6  1  0
  6  7  2  0
  7  8  1  0
  8  9  1  0
  9 10  1  1
 10 11  2  0
 10 12  1  0
 12 13  1  0
 13 14  2  0
 14 15  1  0
 15 16  2  0
 16 17  1  0
 17 18  2  0
 17 19  1  0
 16 20  1  0
 20 21  2  0
 21 22  1  0
 22 23  2  0
 23 24  1  0
 24 25  2  0
 12 26  1  0
 26 27  2  0
 28 26  1  1
  8  2  1  0
 28  9  1  0
 28  5  1  0
 25 13  1  0
 25 20  1  0
M  CHG  2  17   1  19  -1
M  END
>  <assay_chembl_id>  (45) 
CHEMBL831105

>  <assay_description>  (45) 
Inhibition of androgen receptor in human MDA-453 cells

>  <parent_molecule_chembl_id>  (45) 
CHEMBL183173

>  <canonical_smiles>  (45) 
CN1C(=O)C2C=CC1[C@@H]1C(=O)N(c3ccc([N+](=O)[O-])c4ccccc34)C(=O)[C@H]21

>  <standard_type>  (45) 
IC50

>  <standard_relation>  (45) 
=

>  <standard_value>  (45) 
4030.0

>  <standard_units>  (45) 
nM

>  <target_pref_name>  (45) 
Androgen Receptor

>  <target_chembl_id>  (45) 
CHEMBL1871

>  <target_organism>  (45) 
Homo sapiens

>  <pchembl_median>  (45) 
5.85

$$$$
CHEMBL409
     RDKit          2D

 29 30  0  0  0  0  0  0  0  0999 V2000
    3.7500   -2.3971    0.0000 C   0  0  0  0  0  0  0  0  0  0  0  0
    3.7500   -3.8971    0.0000 C   0  0  0  0  0  0  0  0  0  0  0  0
    5.2500   -3.8971    0.0000 O   0  0  0  0  0  0  0  0  0  0  0  0
    2.2500   -3.8971    0.0000 C   0  0  0  0  0  0  0  0  0  0  0  0
    1.5000   -2.5981    0.0000 S   0  0  0  0  0  0  0  0  0  0  0  0
    2.7990   -1.8481    0.0000 O   0  0  0  0  0  0  0  0  0  0  0  0
    0.2010   -3.3481    0.0000 O   0  0  0  0  0  0  0  0  0  0  0  0
    0.7500   -1.2990    0.0000 C   0  0  0  0  0  0  0  0  0  0  0  0
    1.5000    0.0000    0.0000 C   0  0  0  0  0  0  0  0  0  0  0  0
    0.7500    1.2990    0.0000 C   0  0  0  0  0  0  0  0  0  0  0  0
   -0.7500    1.2990    0.0000 C   0  0  0  0  0  0  0  0  0  0  0  0
   -1.5000    2.5981    0.0000 F   0  0  0  0  0  0  0  0  0  0  0  0
   -1.5000    0.0000    0.0000 C   0  0  0  0  0  0  0  0  0  0  0  0
   -0.7500   -1.2990    0.0000 C   0  0  0  0  0  0  0  0  0  0  0  0
    3.7500   -5.3971    0.0000 C   0  0  0  0  0  0  0  0  0  0  0  0
    2.4510   -6.1471    0.0000 O   0  0  0  0  0  0  0  0  0  0  0  0
    5.0490   -6.1471    0.0000 N   0  0  0  0  0  0  0  0  0  0  0  0
    5.0490   -7.6471    0.0000 C   0  0  0  0  0  0  0  0  0  0  0  0
    3.7500   -8.3971    0.0000 C   0  0  0  0  0  0  0  0  0  0  0  0
    3.7500   -9.8971    0.0000 C   0  0  0  0  0  0  0  0  0  0  0  0
    5.0490  -10.6471    0.0000 C   0  0  0  0  0  0  0  0  0  0  0  0
    5.0490  -12.1471    0.0000 C   0  0  0  0  0  0  0  0  0  0  0  0
    5.0490  -13.6471    0.0000 N   0  0  0  0  0  0  0  0  0  0  0  0
    6.3481   -9.8971    0.0000 C   0  0  0  0  0  0  0  0  0  0  0  0
    7.6471  -10.6471    0.0000 C   0  0  0  0  0  0  0  0  0  0  0  0
    8.9462  -11.3971    0.0000 F   0  0  0  0  0  0  0  0  0  0  0  0
    8.3971   -9.3481    0.0000 F   0  0  0  0  0  0  0  0  0  0  0  0
    6.8971  -11.9462    0.0000 F   0  0  0  0  0  0  0  0  0  0  0  0
    6.3481   -8.3971    0.0000 C   0  0  0  0  0  0  0  0  0  0  0  0
  1  2  1  0
  2  3  1  0
  2  4  1  0
  4  5  1  0
  5  6  2  0
  5  7  2  0
  5  8  1  0
  8  9  2  0
  9 10  1  0
 10 11  2  0
 11 12  1  0
 11 13  1  0
 13 14  2  0
  2 15  1  0
 15 16  2  0
 15 17  1  0
 17 18  1  0
 18 19  2  0
 19 20  1  0
 20 21  2  0
 21 22  1  0
 22 23  3  0
 21 24  1  0
 24 25  1  0
 25 26  1  0
 25 27  1  0
 25 28  1  0
 24 29  2  0
 14  8  1  0
 29 18  1  0
M  END
>  <assay_chembl_id>  (46) 
CHEMBL833436

>  <assay_description>  (46) 
Inhibition of androgen dependent human prostate cancer cell MDA-MB-PCa2b proliferation

>  <parent_molecule_chembl_id>  (46) 
CHEMBL409

>  <canonical_smiles>  (46) 
CC(O)(CS(=O)(=O)c1ccc(F)cc1)C(=O)Nc1ccc(C#N)c(C(F)(F)F)c1

>  <standard_type>  (46) 
IC50

>  <standard_relation>  (46) 
=

>  <standard_value>  (46) 
725.0

>  <standard_units>  (46) 
nM

>  <target_pref_name>  (46) 
Androgen Receptor

>  <target_chembl_id>  (46) 
CHEMBL1871

>  <target_organism>  (46) 
Homo sapiens

>  <pchembl_median>  (46) 
5.34

$$$$
CHEMBL182593
     RDKit          2D

 20 23  0  0  0  0  0  0  0  0999 V2000
   -1.4504    4.3172    0.0000 O   0  0  0  0  0  0  0  0  0  0  0  0
   -1.9140    2.8906    0.0000 C   0  0  0  0  0  0  0  0  0  0  0  0
   -1.0323    1.6771    0.0000 C   0  0  0  0  0  0  0  0  0  0  0  0
    0.3943    1.2135    0.0000 C   0  0  0  0  0  0  0  0  0  0  0  0
    1.2760    0.0000    0.0000 C   0  0  0  0  0  0  0  0  0  0  0  0
    0.3943   -1.2135    0.0000 C   0  0  0  0  0  0  0  0  0  0  0  0
   -1.0323   -0.7500    0.0000 C   0  0  0  0  0  0  0  0  0  0  0  0
   -1.0323    0.7500    0.0000 C   0  0  0  0  0  0  0  0  0  0  0  0
   -1.9140    0.4635    0.0000 C   0  0  0  0  0  0  0  0  0  0  0  0
   -3.3405    0.9271    0.0000 C   0  0  0  0  0  0  0  0  0  0  0  0
   -4.5541    0.0454    0.0000 O   0  0  0  0  0  0  0  0  0  0  0  0
   -3.3405    2.4271    0.0000 N   0  0  0  0  0  0  0  0  0  0  0  0
   -4.5541    3.3087    0.0000 C   0  0  0  0  0  0  0  0  0  0  0  0
   -4.3973    4.8005    0.0000 C   0  0  0  0  0  0  0  0  0  0  0  0
   -5.6108    5.6822    0.0000 C   0  0  0  0  0  0  0  0  0  0  0  0
   -6.9811    5.0721    0.0000 C   0  0  0  0  0  0  0  0  0  0  0  0
   -8.1947    5.9538    0.0000 Cl  0  0  0  0  0  0  0  0  0  0  0  0
   -7.1379    3.5803    0.0000 C   0  0  0  0  0  0  0  0  0  0  0  0
   -8.5082    2.9702    0.0000 Cl  0  0  0  0  0  0  0  0  0  0  0  0
   -5.9244    2.6986    0.0000 C   0  0  0  0  0  0  0  0  0  0  0  0
  1  2  2  0
  3  2  1  1
  3  4  1  0
  4  5  1  0
  5  6  2  0
  6  7  1  0
  7  8  1  0
  7  9  1  0
  9 10  1  1
 10 11  2  0
 10 12  1  0
 12 13  1  0
 13 14  2  0
 14 15  1  0
 15 16  2  0
 16 17  1  0
 16 18  1  0
 18 19  1  0
 18 20  2  0
 12  2  1  0
 20 13  1  0
  9  3  1  0
  8  4  1  0
M  END
>  <assay_chembl_id>  (47) 
CHEMBL831105

>  <assay_description>  (47) 
Inhibition of androgen receptor in human MDA-453 cells

>  <parent_molecule_chembl_id>  (47) 
CHEMBL182593

>  <canonical_smiles>  (47) 
O=C1[C@H]2C3C=CC(C3)[C@H]2C(=O)N1c1ccc(Cl)c(Cl)c1

>  <standard_type>  (47) 
IC50

>  <standard_relation>  (47) 
=

>  <standard_value>  (47) 
307.0

>  <standard_units>  (47) 
nM

>  <target_pref_name>  (47) 
Androgen Receptor

>  <target_chembl_id>  (47) 
CHEMBL1871

>  <target_organism>  (47) 
Homo sapiens

>  <pchembl_median>  (47) 
7.47

$$$$
CHEMBL361445
     RDKit          2D

 26 30  0  0  0  0  0  0  0  0999 V2000
   -1.4418   -3.8810    0.0000 O   0  0  0  0  0  0  0  0  0  0  0  0
   -1.7537   -2.4138    0.0000 C   0  0  0  0  0  0  0  0  0  0  0  0
   -0.7500   -1.2990    0.0000 C   0  0  0  0  0  0  0  0  0  0  0  0
    0.7500   -1.2990    0.0000 C   0  0  0  0  0  0  0  0  0  0  0  0
    1.5000    0.0000    0.0000 C   0  0  0  0  0  0  0  0  0  0  0  0
    0.7500    1.2990    0.0000 C   0  0  0  0  0  0  0  0  0  0  0  0
   -0.7500    1.2990    0.0000 C   0  0  0  0  0  0  0  0  0  0  0  0
   -0.8000    0.0000    0.0000 C   0  0  0  0  0  0  0  0  0  0  0  0
   -0.4000   -0.6928    0.0000 C   0  0  0  0  0  0  0  0  0  0  0  0
   -1.5000   -0.0000    0.0000 C   0  0  0  0  0  0  0  0  0  0  0  0
   -2.9672   -0.3119    0.0000 C   0  0  0  0  0  0  0  0  0  0  0  0
   -4.0819    0.6918    0.0000 O   0  0  0  0  0  0  0  0  0  0  0  0
   -3.1240   -1.8037    0.0000 N   0  0  0  0  0  0  0  0  0  0  0  0
   -4.4231   -2.5537    0.0000 C   0  0  0  0  0  0  0  0  0  0  0  0
   -5.7221   -1.8037    0.0000 C   0  0  0  0  0  0  0  0  0  0  0  0
   -7.0211   -2.5537    0.0000 C   0  0  0  0  0  0  0  0  0  0  0  0
   -7.0211   -4.0537    0.0000 C   0  0  0  0  0  0  0  0  0  0  0  0
   -8.3202   -4.8037    0.0000 N   0  0  0  0  0  4  0  0  0  0  0  0
   -8.3202   -6.3037    0.0000 O   0  0  0  0  0  0  0  0  0  0  0  0
   -9.6192   -4.0537    0.0000 O   0  0  0  0  0  1  0  0  0  0  0  0
   -5.7221   -4.8037    0.0000 C   0  0  0  0  0  0  0  0  0  0  0  0
   -5.7221   -6.3037    0.0000 C   0  0  0  0  0  0  0  0  0  0  0  0
   -4.4231   -7.0537    0.0000 C   0  0  0  0  0  0  0  0  0  0  0  0
   -3.1240   -6.3037    0.0000 C   0  0  0  0  0  0  0  0  0  0  0  0
   -3.1240   -4.8037    0.0000 C   0  0  0  0  0  0  0  0  0  0  0  0
   -4.4231   -4.0537    0.0000 C   0  0  0  0  0  0  0  0  0  0  0  0
  1  2  2  0
  3  2  1  6
  3  4  1  0
  4  5  1  0
  5  6  2  0
  6  7  1  0
  7  8  1  0
  8  9  1  0
  7 10  1  0
 10 11  1  6
 11 12  2  0
 11 13  1  0
 13 14  1  0
 14 15  2  0
 15 16  1  0
 16 17  2  0
 17 18  1  0
 18 19  2  0
 18 20  1  0
 17 21  1  0
 21 22  2  0
 22 23  1  0
 23 24  2  0
 24 25  1  0
 25 26  2  0
 13  2  1  0
 26 14  1  0
 10  3  1  0
 26 21  1  0
  9  4  1  0
M  CHG  2  18   1  20  -1
M  END
>  <assay_chembl_id>  (48) 
CHEMBL831105

>  <assay_description>  (48) 
Inhibition of androgen receptor in human MDA-453 cells

>  <parent_molecule_chembl_id>  (48) 
CHEMBL361445

>  <canonical_smiles>  (48) 
O=C1[C@H]2C3C=CC(CC3)[C@H]2C(=O)N1c1ccc([N+](=O)[O-])c2ccccc12

>  <standard_type>  (48) 
IC50

>  <standard_relation>  (48) 
=

>  <standard_value>  (48) 
224.0

>  <standard_units>  (48) 
nM

>  <target_pref_name>  (48) 
Androgen Receptor

>  <target_chembl_id>  (48) 
CHEMBL1871

>  <target_organism>  (48) 
Homo sapiens

>  <pchembl_median>  (48) 
7.82

$$$$
CHEMBL369542
     RDKit          2D

 27 31  0  0  0  0  0  0  0  0999 V2000
   -0.3943   -3.7400    0.0000 O   0  0  0  0  0  0  0  0  0  0  0  0
    0.4321   -2.4881    0.0000 C   0  0  0  0  0  0  0  0  0  0  0  0
   -0.0950   -1.0838    0.0000 C   0  0  0  0  0  0  0  0  0  0  0  0
   -1.5574   -0.7500    0.0000 C   0  0  0  0  0  0  0  0  0  0  0  0
   -1.5574    0.7500    0.0000 C   0  0  0  0  0  0  0  0  0  0  0  0
   -0.3846    1.6852    0.0000 C   0  0  0  0  0  0  0  0  0  0  0  0
    1.0777    1.3515    0.0000 C   0  0  0  0  0  0  0  0  0  0  0  0
    0.6607    0.5955    0.0000 C   0  0  0  0  0  0  0  0  0  0  0  0
    0.2049   -0.2569    0.0000 C   0  0  0  0  0  0  0  0  0  0  0  0
   -0.7276   -0.5116    0.0000 C   0  0  0  0  0  0  0  0  0  0  0  0
    1.0777   -0.1485    0.0000 C   0  0  0  0  0  0  0  0  0  0  0  0
    2.3296   -0.9749    0.0000 C   0  0  0  0  0  0  0  0  0  0  0  0
    3.7340   -0.4478    0.0000 O   0  0  0  0  0  0  0  0  0  0  0  0
    1.9306   -2.4208    0.0000 N   0  0  0  0  0  0  0  0  0  0  0  0
    2.8658   -3.5936    0.0000 C   0  0  0  0  0  0  0  0  0  0  0  0
    2.3178   -4.9899    0.0000 C   0  0  0  0  0  0  0  0  0  0  0  0
    3.2530   -6.1626    0.0000 C   0  0  0  0  0  0  0  0  0  0  0  0
    4.7363   -5.9391    0.0000 C   0  0  0  0  0  0  0  0  0  0  0  0
    5.6715   -7.1118    0.0000 N   0  0  0  0  0  4  0  0  0  0  0  0
    7.1547   -6.8883    0.0000 O   0  0  0  0  0  0  0  0  0  0  0  0
    5.1235   -8.5081    0.0000 O   0  0  0  0  0  1  0  0  0  0  0  0
    5.2843   -4.5428    0.0000 C   0  0  0  0  0  0  0  0  0  0  0  0
    6.7675   -4.3192    0.0000 C   0  0  0  0  0  0  0  0  0  0  0  0
    7.3155   -2.9229    0.0000 C   0  0  0  0  0  0  0  0  0  0  0  0
    6.3803   -1.7501    0.0000 C   0  0  0  0  0  0  0  0  0  0  0  0
    4.8970   -1.9737    0.0000 C   0  0  0  0  0  0  0  0  0  0  0  0
    4.3490   -3.3700    0.0000 C   0  0  0  0  0  0  0  0  0  0  0  0
  1  2  2  0
  3  2  1  1
  3  4  1  0
  4  5  1  0
  5  6  2  0
  6  7  1  0
  7  8  1  0
  8  9  1  0
  9 10  1  0
  7 11  1  0
 11 12  1  1
 12 13  2  0
 12 14  1  0
 14 15  1  0
 15 16  2  0
 16 17  1  0
 17 18  2  0
 18 19  1  0
 19 20  2  0
 19 21  1  0
 18 22  1  0
 22 23  2  0
 23 24  1  0
 24 25  2  0
 25 26  1  0
 26 27  2  0
 14  2  1  0
 27 15  1  0
 11  3  1  0
 27 22  1  0
 10  4  1  0
M  CHG  2  19   1  21  -1
M  END
>  <assay_chembl_id>  (49) 
CHEMBL831105

>  <assay_description>  (49) 
Inhibition of androgen receptor in human MDA-453 cells

>  <parent_molecule_chembl_id>  (49) 
CHEMBL369542

>  <canonical_smiles>  (49) 
O=C1[C@H]2C3C=CC(CCC3)[C@H]2C(=O)N1c1ccc([N+](=O)[O-])c2ccccc12

>  <standard_type>  (49) 
IC50

>  <standard_relation>  (49) 
=

>  <standard_value>  (49) 
49.0

>  <standard_units>  (49) 
nM

>  <target_pref_name>  (49) 
Androgen Receptor

>  <target_chembl_id>  (49) 
CHEMBL1871

>  <target_organism>  (49) 
Homo sapiens

>  <pchembl_median>  (49) 
7.47

$$$$
CHEMBL183882
     RDKit          2D

 24 27  0  0  0  0  0  0  0  0999 V2000
    3.7340   -0.4478    0.0000 O   0  0  0  0  0  0  0  0  0  0  0  0
    2.3296   -0.9749    0.0000 C   0  0  0  0  0  0  0  0  0  0  0  0
    1.0777   -0.1485    0.0000 C   0  0  0  0  0  0  0  0  0  0  0  0
    1.0777    1.3515    0.0000 C   0  0  0  0  0  0  0  0  0  0  0  0
    0.6607    0.5955    0.0000 C   0  0  0  0  0  0  0  0  0  0  0  0
    0.2049   -0.2569    0.0000 C   0  0  0  0  0  0  0  0  0  0  0  0
   -0.7276   -0.5116    0.0000 C   0  0  0  0  0  0  0  0  0  0  0  0
   -1.5574   -0.7500    0.0000 C   0  0  0  0  0  0  0  0  0  0  0  0
   -1.5574    0.7500    0.0000 C   0  0  0  0  0  0  0  0  0  0  0  0
   -0.3846    1.6852    0.0000 C   0  0  0  0  0  0  0  0  0  0  0  0
   -0.0950   -1.0838    0.0000 C   0  0  0  0  0  0  0  0  0  0  0  0
    0.4321   -2.4881    0.0000 C   0  0  0  0  0  0  0  0  0  0  0  0
   -0.3943   -3.7400    0.0000 O   0  0  0  0  0  0  0  0  0  0  0  0
    1.9306   -2.4208    0.0000 N   0  0  0  0  0  0  0  0  0  0  0  0
    2.8658   -3.5936    0.0000 C   0  0  0  0  0  0  0  0  0  0  0  0
    2.3178   -4.9899    0.0000 C   0  0  0  0  0  0  0  0  0  0  0  0
    3.2530   -6.1626    0.0000 C   0  0  0  0  0  0  0  0  0  0  0  0
    4.7363   -5.9391    0.0000 C   0  0  0  0  0  0  0  0  0  0  0  0
    5.2843   -4.5428    0.0000 C   0  0  0  0  0  0  0  0  0  0  0  0
    6.7675   -4.3192    0.0000 C   0  0  0  0  0  0  0  0  0  0  0  0
    8.2508   -4.0956    0.0000 F   0  0  0  0  0  0  0  0  0  0  0  0
    6.9911   -5.8025    0.0000 F   0  0  0  0  0  0  0  0  0  0  0  0
    6.5440   -2.8360    0.0000 F   0  0  0  0  0  0  0  0  0  0  0  0
    4.3490   -3.3700    0.0000 C   0  0  0  0  0  0  0  0  0  0  0  0
  1  2  2  0
  3  2  1  6
  3  4  1  0
  4  5  1  0
  5  6  1  0
  6  7  1  0
  7  8  1  0
  8  9  1  0
  9 10  1  0
  8 11  1  0
 11 12  1  6
 12 13  2  0
 12 14  1  0
 14 15  1  0
 15 16  2  0
 16 17  1  0
 17 18  2  0
 18 19  1  0
 19 20  1  0
 20 21  1  0
 20 22  1  0
 20 23  1  0
 19 24  2  0
 14  2  1  0
 24 15  1  0
 11  3  1  0
 10  4  1  0
M  END
>  <assay_chembl_id>  (50) 
CHEMBL831105

>  <assay_description>  (50) 
Inhibition of androgen receptor in human MDA-453 cells

>  <parent_molecule_chembl_id>  (50) 
CHEMBL183882

>  <canonical_smiles>  (50) 
O=C1[C@H]2C3CCCC(CC3)[C@H]2C(=O)N1c1cccc(C(F)(F)F)c1

>  <standard_type>  (50) 
IC50

>  <standard_relation>  (50) 
=

>  <standard_value>  (50) 
658.0

>  <standard_units>  (50) 
nM

>  <target_pref_name>  (50) 
Androgen Receptor

>  <target_chembl_id>  (50) 
CHEMBL1871

>  <target_organism>  (50) 
Homo sapiens

>  <pchembl_median>  (50) 
7.07

$$$$
CHEMBL367375
     RDKit          2D

 27 32  0  0  0  0  0  0  0  0999 V2000
   -4.9212   -2.6401    0.0000 O   0  0  0  0  0  0  0  0  0  0  0  0
   -4.4577   -1.2135    0.0000 C   0  0  0  0  0  0  0  0  0  0  0  0
   -3.0311   -0.7500    0.0000 C   0  0  0  0  0  0  0  0  0  0  0  0
   -1.7321   -1.5000    0.0000 C   0  0  0  0  0  0  0  0  0  0  0  0
   -1.7825   -0.6782    0.0000 C   0  0  0  0  0  0  0  0  0  0  0  0
   -1.7825    0.6782    0.0000 C   0  0  0  0  0  0  0  0  0  0  0  0
   -1.7321    1.5000    0.0000 C   0  0  0  0  0  0  0  0  0  0  0  0
   -0.4330    0.7500    0.0000 C   0  0  0  0  0  0  0  0  0  0  0  0
    0.8660    0.0000    0.0000 C   0  0  0  0  0  0  0  0  0  0  0  0
   -0.4330   -0.7500    0.0000 C   0  0  0  0  0  0  0  0  0  0  0  0
   -3.0311    0.7500    0.0000 C   0  0  0  0  0  0  0  0  0  0  0  0
   -4.4577    1.2135    0.0000 C   0  0  0  0  0  0  0  0  0  0  0  0
   -4.9212    2.6401    0.0000 O   0  0  0  0  0  0  0  0  0  0  0  0
   -5.3394    0.0000    0.0000 N   0  0  0  0  0  0  0  0  0  0  0  0
   -6.8394    0.0000    0.0000 C   0  0  0  0  0  0  0  0  0  0  0  0
   -7.5894    1.2990    0.0000 C   0  0  0  0  0  0  0  0  0  0  0  0
   -9.0894    1.2990    0.0000 C   0  0  0  0  0  0  0  0  0  0  0  0
   -9.8394    0.0000    0.0000 C   0  0  0  0  0  0  0  0  0  0  0  0
  -11.3394    0.0000    0.0000 N   0  0  0  0  0  4  0  0  0  0  0  0
  -12.0894   -1.2990    0.0000 O   0  0  0  0  0  0  0  0  0  0  0  0
  -12.0894    1.2990    0.0000 O   0  0  0  0  0  1  0  0  0  0  0  0
   -9.0894   -1.2990    0.0000 C   0  0  0  0  0  0  0  0  0  0  0  0
   -9.8394   -2.5981    0.0000 C   0  0  0  0  0  0  0  0  0  0  0  0
   -9.0894   -3.8971    0.0000 C   0  0  0  0  0  0  0  0  0  0  0  0
   -7.5894   -3.8971    0.0000 C   0  0  0  0  0  0  0  0  0  0  0  0
   -6.8394   -2.5981    0.0000 C   0  0  0  0  0  0  0  0  0  0  0  0
   -7.5894   -1.2990    0.0000 C   0  0  0  0  0  0  0  0  0  0  0  0
  1  2  2  0
  3  2  1  6
  3  4  1  0
  4  5  1  0
  5  6  2  0
  6  7  1  0
  7  8  1  0
  8  9  1  6
 10  9  1  6
  7 11  1  0
 11 12  1  6
 12 13  2  0
 12 14  1  0
 14 15  1  0
 15 16  2  0
 16 17  1  0
 17 18  2  0
 18 19  1  0
 19 20  2  0
 19 21  1  0
 18 22  1  0
 22 23  2  0
 23 24  1  0
 24 25  2  0
 25 26  1  0
 26 27  2  0
 14  2  1  0
 27 15  1  0
 11  3  1  0
 27 22  1  0
 10  4  1  0
 10  8  1  0
M  CHG  2  19   1  21  -1
M  END
>  <assay_chembl_id>  (51) 
CHEMBL831105

>  <assay_description>  (51) 
Inhibition of androgen receptor in human MDA-453 cells

>  <parent_molecule_chembl_id>  (51) 
CHEMBL367375

>  <canonical_smiles>  (51) 
O=C1[C@H]2C3C=CC([C@@H]4C[C@H]34)[C@H]2C(=O)N1c1ccc([N+](=O)[O-])c2ccccc12

>  <standard_type>  (51) 
IC50

>  <standard_relation>  (51) 
=

>  <standard_value>  (51) 
786.0

>  <standard_units>  (51) 
nM

>  <target_pref_name>  (51) 
Androgen Receptor

>  <target_chembl_id>  (51) 
CHEMBL1871

>  <target_organism>  (51) 
Homo sapiens

>  <pchembl_median>  (51) 
7.05

$$$$
CHEMBL182993
     RDKit          2D

 24 28  0  0  0  0  0  0  0  0999 V2000
   -4.9212   -2.6401    0.0000 O   0  0  0  0  0  0  0  0  0  0  0  0
   -4.4577   -1.2135    0.0000 C   0  0  0  0  0  0  0  0  0  0  0  0
   -3.0311   -0.7500    0.0000 C   0  0  0  0  0  0  0  0  0  0  0  0
   -1.7321   -1.5000    0.0000 C   0  0  0  0  0  0  0  0  0  0  0  0
   -1.7825   -0.6782    0.0000 C   0  0  0  0  0  0  0  0  0  0  0  0
   -1.7825    0.6782    0.0000 C   0  0  0  0  0  0  0  0  0  0  0  0
   -1.7321    1.5000    0.0000 C   0  0  0  0  0  0  0  0  0  0  0  0
   -0.4330    0.7500    0.0000 C   0  0  0  0  0  0  0  0  0  0  0  0
    0.8660    0.0000    0.0000 C   0  0  0  0  0  0  0  0  0  0  0  0
   -0.4330   -0.7500    0.0000 C   0  0  0  0  0  0  0  0  0  0  0  0
   -3.0311    0.7500    0.0000 C   0  0  0  0  0  0  0  0  0  0  0  0
   -4.4577    1.2135    0.0000 C   0  0  0  0  0  0  0  0  0  0  0  0
   -4.9212    2.6401    0.0000 O   0  0  0  0  0  0  0  0  0  0  0  0
   -5.3394    0.0000    0.0000 N   0  0  0  0  0  0  0  0  0  0  0  0
   -6.8394    0.0000    0.0000 C   0  0  0  0  0  0  0  0  0  0  0  0
   -7.5894    1.2990    0.0000 C   0  0  0  0  0  0  0  0  0  0  0  0
   -9.0894    1.2990    0.0000 C   0  0  0  0  0  0  0  0  0  0  0  0
   -9.8394    0.0000    0.0000 C   0  0  0  0  0  0  0  0  0  0  0  0
   -9.0894   -1.2990    0.0000 C   0  0  0  0  0  0  0  0  0  0  0  0
   -9.8394   -2.5981    0.0000 C   0  0  0  0  0  0  0  0  0  0  0  0
  -10.5894   -3.8971    0.0000 F   0  0  0  0  0  0  0  0  0  0  0  0
  -11.1384   -1.8481    0.0000 F   0  0  0  0  0  0  0  0  0  0  0  0
   -8.5403   -3.3481    0.0000 F   0  0  0  0  0  0  0  0  0  0  0  0
   -7.5894   -1.2990    0.0000 C   0  0  0  0  0  0  0  0  0  0  0  0
  1  2  2  0
  3  2  1  6
  3  4  1  0
  4  5  1  0
  5  6  2  0
  6  7  1  0
  7  8  1  0
  8  9  1  6
 10  9  1  6
  7 11  1  0
 11 12  1  6
 12 13  2  0
 12 14  1  0
 14 15  1  0
 15 16  2  0
 16 17  1  0
 17 18  2  0
 18 19  1  0
 19 20  1  0
 20 21  1  0
 20 22  1  0
 20 23  1  0
 19 24  2  0
 14  2  1  0
 24 15  1  0
 11  3  1  0
 10  4  1  0
 10  8  1  0
M  END
>  <assay_chembl_id>  (52) 
CHEMBL831105

>  <assay_description>  (52) 
Inhibition of androgen receptor in human MDA-453 cells

>  <parent_molecule_chembl_id>  (52) 
CHEMBL182993

>  <canonical_smiles>  (52) 
O=C1[C@H]2C3C=CC([C@@H]4C[C@H]34)[C@H]2C(=O)N1c1cccc(C(F)(F)F)c1

>  <standard_type>  (52) 
IC50

>  <standard_relation>  (52) 
=

>  <standard_value>  (52) 
1700.0

>  <standard_units>  (52) 
nM

>  <target_pref_name>  (52) 
Androgen Receptor

>  <target_chembl_id>  (52) 
CHEMBL1871

>  <target_organism>  (52) 
Homo sapiens

>  <pchembl_median>  (52) 
5.04

$$$$
CHEMBL180681
     RDKit          2D

 21 24  0  0  0  0  0  0  0  0999 V2000
   -8.3202   -1.8037    0.0000 C   0  0  0  0  0  0  0  0  0  0  0  0
   -7.0211   -2.5537    0.0000 C   0  0  0  0  0  0  0  0  0  0  0  0
   -5.7221   -1.8037    0.0000 C   0  0  0  0  0  0  0  0  0  0  0  0
   -4.4231   -2.5537    0.0000 C   0  0  0  0  0  0  0  0  0  0  0  0
   -3.1240   -1.8037    0.0000 N   0  0  0  0  0  0  0  0  0  0  0  0
   -1.7537   -2.4138    0.0000 C   0  0  0  0  0  0  0  0  0  0  0  0
   -1.4418   -3.8810    0.0000 O   0  0  0  0  0  0  0  0  0  0  0  0
   -0.7500   -1.2990    0.0000 C   0  0  0  0  0  0  0  0  0  0  0  0
    0.7500   -1.2990    0.0000 C   0  0  0  0  0  0  0  0  0  0  0  0
    1.5000    0.0000    0.0000 C   0  0  0  0  0  0  0  0  0  0  0  0
    0.7500    1.2990    0.0000 C   0  0  0  0  0  0  0  0  0  0  0  0
   -0.7500    1.2990    0.0000 C   0  0  0  0  0  0  0  0  0  0  0  0
   -0.8000    0.0000    0.0000 C   0  0  0  0  0  0  0  0  0  0  0  0
   -0.4000   -0.6928    0.0000 C   0  0  0  0  0  0  0  0  0  0  0  0
   -1.5000   -0.0000    0.0000 C   0  0  0  0  0  0  0  0  0  0  0  0
   -2.9672   -0.3119    0.0000 C   0  0  0  0  0  0  0  0  0  0  0  0
   -4.0819    0.6918    0.0000 O   0  0  0  0  0  0  0  0  0  0  0  0
   -4.4231   -4.0537    0.0000 C   0  0  0  0  0  0  0  0  0  0  0  0
   -5.7221   -4.8037    0.0000 C   0  0  0  0  0  0  0  0  0  0  0  0
   -7.0211   -4.0537    0.0000 C   0  0  0  0  0  0  0  0  0  0  0  0
   -8.3202   -4.8037    0.0000 Br  0  0  0  0  0  0  0  0  0  0  0  0
  1  2  1  0
  2  3  2  0
  3  4  1  0
  4  5  1  0
  5  6  1  0
  6  7  2  0
  8  6  1  6
  8  9  1  0
  9 10  1  0
 10 11  2  0
 11 12  1  0
 12 13  1  0
 13 14  1  0
 12 15  1  0
 15 16  1  6
 16 17  2  0
  4 18  2  0
 18 19  1  0
 19 20  2  0
 20 21  1  0
 20  2  1  0
 16  5  1  0
 15  8  1  0
 14  9  1  0
M  END
>  <assay_chembl_id>  (53) 
CHEMBL831105

>  <assay_description>  (53) 
Inhibition of androgen receptor in human MDA-453 cells

>  <parent_molecule_chembl_id>  (53) 
CHEMBL180681

>  <canonical_smiles>  (53) 
Cc1cc(N2C(=O)[C@H]3C4C=CC(CC4)[C@H]3C2=O)ccc1Br

>  <standard_type>  (53) 
IC50

>  <standard_relation>  (53) 
=

>  <standard_value>  (53) 
68.0

>  <standard_units>  (53) 
nM

>  <target_pref_name>  (53) 
Androgen Receptor

>  <target_chembl_id>  (53) 
CHEMBL1871

>  <target_organism>  (53) 
Homo sapiens

>  <pchembl_median>  (53) 
6.32

$$$$
CHEMBL386630
     RDKit          2D

 21 24  0  0  0  0  0  0  0  0999 V2000
   -4.4918   -5.3529    0.0000 C   0  0  0  0  0  0  0  0  0  0  0  0
   -3.0000   -5.1962    0.0000 C   0  0  0  0  0  0  0  0  0  0  0  0
   -3.7500   -3.8971    0.0000 C   0  0  0  0  0  0  0  0  0  0  0  0
   -3.0000   -2.5981    0.0000 C   0  0  0  0  0  0  0  0  0  0  0  0
   -1.5000   -2.5981    0.0000 C   0  0  0  0  0  0  0  0  0  0  0  0
   -0.7500   -3.8971    0.0000 C   0  0  0  0  0  0  0  0  0  0  0  0
    0.7500   -3.8971    0.0000 C   0  0  0  0  0  0  0  0  0  0  0  0
    1.5000   -2.5981    0.0000 C   0  0  0  0  0  0  0  0  0  0  0  0
    0.7500   -1.2990    0.0000 C   0  0  0  0  0  0  0  0  0  0  0  0
    1.5000    0.0000    0.0000 C   0  0  0  0  0  0  0  0  0  0  0  0
    0.7500    1.2990    0.0000 C   0  0  0  0  0  0  0  0  0  0  0  0
    1.5000    2.5981    0.0000 O   0  0  0  0  0  0  0  0  0  0  0  0
   -0.7500    1.2990    0.0000 C   0  0  0  0  0  0  0  0  0  0  0  0
   -1.5000    0.0000    0.0000 C   0  0  0  0  0  0  0  0  0  0  0  0
   -0.7500   -1.2990    0.0000 C   0  0  0  0  0  0  0  0  0  0  0  0
   -2.2500   -1.2990    0.0000 C   0  0  0  0  0  0  0  0  0  0  0  0
   -1.5000   -5.1962    0.0000 C   0  0  0  0  0  0  0  0  0  0  0  0
   -1.0365   -6.6227    0.0000 C   0  0  0  0  0  0  0  0  0  0  0  0
   -2.2500   -7.5044    0.0000 C   0  0  0  0  0  0  0  0  0  0  0  0
   -3.4635   -6.6227    0.0000 C   0  0  0  0  0  0  0  0  0  0  0  0
   -4.8901   -7.0863    0.0000 O   0  0  0  0  0  0  0  0  0  0  0  0
  2  1  1  6
  2  3  1  0
  3  4  1  0
  5  4  1  6
  5  6  1  0
  6  7  1  1
  7  8  1  0
  8  9  1  0
  9 10  2  0
 10 11  1  0
 11 12  2  0
 11 13  1  0
 13 14  1  0
 14 15  1  0
 15 16  1  6
  6 17  1  0
 17 18  1  6
 18 19  1  0
 19 20  1  0
 20 21  1  6
 17  2  1  0
 20  2  1  0
 15  5  1  0
 15  9  1  0
M  END
>  <assay_chembl_id>  (54) 
CHEMBL874560

>  <assay_description>  (54) 
Inhibition of human androgen receptor expressed in Escherichia coli

>  <parent_molecule_chembl_id>  (54) 
CHEMBL386630

>  <canonical_smiles>  (54) 
C[C@]12CC[C@H]3[C@@H](CCC4=CC(=O)CC[C@@]43C)[C@@H]1CC[C@@H]2O

>  <standard_type>  (54) 
IC50

>  <standard_relation>  (54) 
=

>  <standard_value>  (54) 
3.9

>  <standard_units>  (54) 
nM

>  <target_pref_name>  (54) 
Androgen Receptor

>  <target_chembl_id>  (54) 
CHEMBL1871

>  <target_organism>  (54) 
Homo sapiens

>  <pchembl_median>  (54) 
7.35

$$$$
CHEMBL361245
     RDKit          2D

 29 33  0  0  0  0  0  0  0  0999 V2000
   -0.4721   -9.9507    0.0000 C   0  0  0  0  0  0  0  0  0  0  0  0
    0.0580   -8.9943    0.0000 C   0  0  0  0  0  0  0  0  0  0  0  0
    1.5498   -9.1511    0.0000 O   0  0  0  0  0  0  0  0  0  0  0  0
   -0.5521   -7.6240    0.0000 O   0  0  0  0  0  0  0  0  0  0  0  0
   -2.0439   -7.4672    0.0000 C   0  0  0  0  0  0  0  0  0  0  0  0
   -2.0439   -8.9672    0.0000 C   0  0  0  0  0  0  0  0  0  0  0  0
   -1.1706   -9.6253    0.0000 C   0  0  0  0  0  0  0  0  0  0  0  0
   -3.3430   -9.7172    0.0000 O   0  0  0  0  0  0  0  0  0  0  0  0
   -3.5357   -7.6240    0.0000 C   0  0  0  0  0  0  0  0  0  0  0  0
   -4.1458   -6.2537    0.0000 C   0  0  0  0  0  0  0  0  0  0  0  0
   -3.0311   -5.2500    0.0000 C   0  0  0  0  0  0  0  0  0  0  0  0
   -3.0311   -3.7500    0.0000 C   0  0  0  0  0  0  0  0  0  0  0  0
   -4.3301   -3.0000    0.0000 C   0  0  0  0  0  0  0  0  0  0  0  0
   -4.3301   -1.5000    0.0000 C   0  0  0  0  0  0  0  0  0  0  0  0
   -5.6292   -0.7500    0.0000 Cl  0  0  0  0  0  0  0  0  0  0  0  0
   -3.0311   -0.7500    0.0000 C   0  0  0  0  0  0  0  0  0  0  0  0
   -3.0311    0.7500    0.0000 C   0  0  0  0  0  0  0  0  0  0  0  0
   -1.7321    1.5000    0.0000 C   0  0  0  0  0  0  0  0  0  0  0  0
   -1.7321    3.0000    0.0000 O   0  0  0  0  0  0  0  0  0  0  0  0
   -0.4330    0.7500    0.0000 C   0  0  0  0  0  0  0  0  0  0  0  0
    0.8660    0.0000    0.0000 C   0  0  0  0  0  0  0  0  0  0  0  0
   -0.4330   -0.7500    0.0000 C   0  0  0  0  0  0  0  0  0  0  0  0
   -1.7321   -1.5000    0.0000 C   0  0  0  0  0  0  0  0  0  0  0  0
   -0.4330   -2.2500    0.0000 C   0  0  0  0  0  0  0  0  0  0  0  0
   -1.7321   -3.0000    0.0000 C   0  0  0  0  0  0  0  0  0  0  0  0
   -0.4330   -3.7500    0.0000 C   0  0  0  0  0  0  0  0  0  0  0  0
   -0.4330   -5.2500    0.0000 C   0  0  0  0  0  0  0  0  0  0  0  0
   -1.7321   -6.0000    0.0000 C   0  0  0  0  0  0  0  0  0  0  0  0
   -0.3412   -6.5618    0.0000 C   0  0  0  0  0  0  0  0  0  0  0  0
  1  2  1  0
  2  3  2  0
  2  4  1  0
  5  4  1  6
  5  6  1  0
  6  7  1  0
  6  8  2  0
  5  9  1  0
  9 10  1  0
 10 11  1  0
 11 12  1  0
 12 13  1  0
 13 14  2  0
 14 15  1  0
 14 16  1  0
 16 17  2  0
 17 18  1  0
 18 19  2  0
 18 20  1  0
 20 21  1  6
 21 22  1  0
 22 23  1  0
 23 24  1  1
 23 25  1  0
 25 26  1  0
 26 27  1  0
 27 28  1  0
 28 29  1  1
 28  5  1  0
 28 11  1  0
 25 12  1  0
 23 16  1  0
 22 20  1  0
M  END
>  <assay_chembl_id>  (55) 
CHEMBL874560

>  <assay_description>  (55) 
Inhibition of human androgen receptor expressed in Escherichia coli

>  <parent_molecule_chembl_id>  (55) 
CHEMBL361245

>  <canonical_smiles>  (55) 
CC(=O)O[C@]1(C(C)=O)CCC2C3C=C(Cl)C4=CC(=O)[C@@H]5CC5[C@]4(C)C3CC[C@@]21C

>  <standard_type>  (55) 
IC50

>  <standard_relation>  (55) 
=

>  <standard_value>  (55) 
22.0

>  <standard_units>  (55) 
nM

>  <target_pref_name>  (55) 
Androgen Receptor

>  <target_chembl_id>  (55) 
CHEMBL1871

>  <target_organism>  (55) 
Homo sapiens

>  <pchembl_median>  (55) 
6.67

$$$$
CHEMBL2311179
     RDKit          2D

 20 23  0  0  0  0  0  0  0  0999 V2000
    4.4918   -5.3529    0.0000 C   0  0  0  0  0  0  0  0  0  0  0  0
    3.0000   -5.1962    0.0000 C   0  0  0  0  0  0  0  0  0  0  0  0
    3.7500   -3.8971    0.0000 C   0  0  0  0  0  0  0  0  0  0  0  0
    3.0000   -2.5981    0.0000 C   0  0  0  0  0  0  0  0  0  0  0  0
    1.5000   -2.5981    0.0000 C   0  0  0  0  0  0  0  0  0  0  0  0
    0.7500   -1.2990    0.0000 C   0  0  0  0  0  0  0  0  0  0  0  0
    1.5000    0.0000    0.0000 C   0  0  0  0  0  0  0  0  0  0  0  0
    0.7500    1.2990    0.0000 C   0  0  0  0  0  0  0  0  0  0  0  0
   -0.7500    1.2990    0.0000 C   0  0  0  0  0  0  0  0  0  0  0  0
   -1.5000    2.5981    0.0000 O   0  0  0  0  0  0  0  0  0  0  0  0
   -1.5000    0.0000    0.0000 C   0  0  0  0  0  0  0  0  0  0  0  0
   -0.7500   -1.2990    0.0000 C   0  0  0  0  0  0  0  0  0  0  0  0
   -1.5000   -2.5981    0.0000 C   0  0  0  0  0  0  0  0  0  0  0  0
   -0.7500   -3.8971    0.0000 C   0  0  0  0  0  0  0  0  0  0  0  0
    0.7500   -3.8971    0.0000 C   0  0  0  0  0  0  0  0  0  0  0  0
    1.5000   -5.1962    0.0000 C   0  0  0  0  0  0  0  0  0  0  0  0
    1.0365   -6.6227    0.0000 C   0  0  0  0  0  0  0  0  0  0  0  0
    2.2500   -7.5044    0.0000 C   0  0  0  0  0  0  0  0  0  0  0  0
    3.4635   -6.6227    0.0000 C   0  0  0  0  0  0  0  0  0  0  0  0
    4.8901   -7.0863    0.0000 O   0  0  0  0  0  0  0  0  0  0  0  0
  2  1  1  1
  2  3  1  0
  3  4  1  0
  4  5  1  0
  5  6  2  0
  6  7  1  0
  7  8  1  0
  8  9  1  0
  9 10  2  0
  9 11  1  0
 11 12  2  0
 12 13  1  0
 13 14  1  0
 15 14  1  6
 15 16  1  0
 16 17  1  1
 17 18  1  0
 18 19  1  0
 19 20  1  1
 16  2  1  0
 19  2  1  0
 15  5  1  0
 12  6  1  0
M  END
>  <assay_chembl_id>  (56) 
CHEMBL874560

>  <assay_description>  (56) 
Inhibition of human androgen receptor expressed in Escherichia coli

>  <parent_molecule_chembl_id>  (56) 
CHEMBL2311179

>  <canonical_smiles>  (56) 
C[C@]12CCC3=C4CCC(=O)C=C4CC[C@H]3[C@@H]1CC[C@@H]2O

>  <standard_type>  (56) 
IC50

>  <standard_relation>  (56) 
=

>  <standard_value>  (56) 
0.2

>  <standard_units>  (56) 
nM

>  <target_pref_name>  (56) 
Androgen Receptor

>  <target_chembl_id>  (56) 
CHEMBL1871

>  <target_organism>  (56) 
Homo sapiens

>  <pchembl_median>  (56) 
6.19

$$$$
CHEMBL186467
     RDKit          2D

 28 31  0  0  0  0  0  0  0  0999 V2000
  -12.0000    2.5981    0.0000 C   0  0  0  0  0  0  0  0  0  0  0  0
  -10.5000    2.5981    0.0000 C   0  0  0  0  0  0  0  0  0  0  0  0
   -9.7500    1.2990    0.0000 C   0  0  0  0  0  0  0  0  0  0  0  0
   -8.2500    1.2990    0.0000 C   0  0  0  0  0  0  0  0  0  0  0  0
   -7.5000    0.0000    0.0000 C   0  0  0  0  0  0  0  0  0  0  0  0
   -6.0000    0.0000    0.0000 C   0  0  0  0  0  0  0  0  0  0  0  0
   -5.2500   -1.2990    0.0000 C   0  0  0  0  0  0  0  0  0  0  0  0
   -3.7500   -1.2990    0.0000 C   0  0  0  0  0  0  0  0  0  0  0  0
   -3.0000   -2.5981    0.0000 C   0  0  0  0  0  0  0  0  0  0  0  0
   -3.7500   -3.8971    0.0000 C   0  0  0  0  0  0  0  0  0  0  0  0
   -3.0000   -5.1962    0.0000 C   0  0  0  0  0  0  0  0  0  0  0  0
   -4.4918   -5.3529    0.0000 C   0  0  0  0  0  0  0  0  0  0  0  0
   -1.5000   -5.1962    0.0000 C   0  0  0  0  0  0  0  0  0  0  0  0
   -1.0365   -6.6227    0.0000 C   0  0  0  0  0  0  0  0  0  0  0  0
   -2.2500   -7.5044    0.0000 C   0  0  0  0  0  0  0  0  0  0  0  0
   -3.4635   -6.6227    0.0000 C   0  0  0  0  0  0  0  0  0  0  0  0
   -4.8901   -7.0863    0.0000 O   0  0  0  0  0  0  0  0  0  0  0  0
   -0.7500   -3.8971    0.0000 C   0  0  0  0  0  0  0  0  0  0  0  0
    0.7500   -3.8971    0.0000 C   0  0  0  0  0  0  0  0  0  0  0  0
    1.5000   -2.5981    0.0000 C   0  0  0  0  0  0  0  0  0  0  0  0
    0.7500   -1.2990    0.0000 C   0  0  0  0  0  0  0  0  0  0  0  0
    1.5000    0.0000    0.0000 C   0  0  0  0  0  0  0  0  0  0  0  0
    0.7500    1.2990    0.0000 C   0  0  0  0  0  0  0  0  0  0  0  0
    1.5000    2.5981    0.0000 O   0  0  0  0  0  0  0  0  0  0  0  0
   -0.7500    1.2990    0.0000 C   0  0  0  0  0  0  0  0  0  0  0  0
   -1.5000    0.0000    0.0000 C   0  0  0  0  0  0  0  0  0  0  0  0
   -0.7500   -1.2990    0.0000 C   0  0  0  0  0  0  0  0  0  0  0  0
   -1.5000   -2.5981    0.0000 C   0  0  0  0  0  0  0  0  0  0  0  0
  1  2  1  0
  2  3  1  0
  3  4  1  0
  4  5  1  0
  5  6  1  0
  6  7  1  0
  7  8  1  0
  9  8  1  6
  9 10  1  0
 10 11  1  0
 11 12  1  6
 11 13  1  0
 13 14  1  0
 14 15  1  0
 15 16  1  0
 16 17  1  6
 13 18  1  0
 18 19  1  0
 19 20  1  0
 20 21  1  0
 21 22  2  0
 22 23  1  0
 23 24  2  0
 23 25  1  0
 25 26  1  0
 26 27  1  0
 27 28  2  0
 28  9  1  0
 16 11  1  0
 28 18  1  0
 27 21  1  0
M  END
>  <assay_chembl_id>  (57) 
CHEMBL874560

>  <assay_description>  (57) 
Inhibition of human androgen receptor expressed in Escherichia coli

>  <parent_molecule_chembl_id>  (57) 
CHEMBL186467

>  <canonical_smiles>  (57) 
CCCCCCCC[C@H]1C[C@@]2(C)C(CC[C@@H]2O)C2CCC3=CC(=O)CCC3=C21

>  <standard_type>  (57) 
IC50

>  <standard_relation>  (57) 
=

>  <standard_value>  (57) 
6.6

>  <standard_units>  (57) 
nM

>  <target_pref_name>  (57) 
Androgen Receptor

>  <target_chembl_id>  (57) 
CHEMBL1871

>  <target_organism>  (57) 
Homo sapiens

>  <pchembl_median>  (57) 
6.19

$$$$
CHEMBL146858
     RDKit          2D

 21 22  0  0  0  0  0  0  0  0999 V2000
    2.8863   -6.1856    0.0000 C   0  0  0  0  0  0  0  0  0  0  0  0
    2.0046   -4.9721    0.0000 C   0  0  0  0  0  0  0  0  0  0  0  0
    0.8899   -5.9758    0.0000 C   0  0  0  0  0  0  0  0  0  0  0  0
    3.3037   -4.2221    0.0000 N   0  0  0  0  0  0  0  0  0  0  0  0
    2.9918   -2.7549    0.0000 C   0  0  0  0  0  0  0  0  0  0  0  0
    3.9955   -1.6402    0.0000 O   0  0  0  0  0  0  0  0  0  0  0  0
    1.5000   -2.5981    0.0000 N   0  0  0  0  0  0  0  0  0  0  0  0
    0.7500   -1.2990    0.0000 C   0  0  0  0  0  0  0  0  0  0  0  0
    1.5000    0.0000    0.0000 C   0  0  0  0  0  0  0  0  0  0  0  0
    0.7500    1.2990    0.0000 C   0  0  0  0  0  0  0  0  0  0  0  0
   -0.7500    1.2990    0.0000 C   0  0  0  0  0  0  0  0  0  0  0  0
   -1.5000    2.5981    0.0000 C   0  0  0  0  0  0  0  0  0  0  0  0
   -2.2500    3.8971    0.0000 N   0  0  0  0  0  0  0  0  0  0  0  0
   -1.5000    0.0000    0.0000 C   0  0  0  0  0  0  0  0  0  0  0  0
   -3.0000    0.0000    0.0000 C   0  0  0  0  0  0  0  0  0  0  0  0
   -4.5000    0.0000    0.0000 F   0  0  0  0  0  0  0  0  0  0  0  0
   -3.0000   -1.5000    0.0000 F   0  0  0  0  0  0  0  0  0  0  0  0
   -3.0000    1.5000    0.0000 F   0  0  0  0  0  0  0  0  0  0  0  0
   -0.7500   -1.2990    0.0000 C   0  0  0  0  0  0  0  0  0  0  0  0
    0.8899   -3.9684    0.0000 C   0  0  0  0  0  0  0  0  0  0  0  0
   -0.5773   -4.2803    0.0000 O   0  0  0  0  0  0  0  0  0  0  0  0
  1  2  1  0
  2  3  1  0
  2  4  1  0
  4  5  1  0
  5  6  2  0
  5  7  1  0
  7  8  1  0
  8  9  2  0
  9 10  1  0
 10 11  2  0
 11 12  1  0
 12 13  3  0
 11 14  1  0
 14 15  1  0
 15 16  1  0
 15 17  1  0
 15 18  1  0
 14 19  2  0
  7 20  1  0
 20 21  2  0
 20  2  1  0
 19  8  1  0
M  END
>  <assay_chembl_id>  (58) 
CHEMBL828424

>  <assay_description>  (58) 
Inhibition of [3H]mibolerone binding to human Androgen receptor of PC3/AR Cell Lysate

>  <parent_molecule_chembl_id>  (58) 
CHEMBL146858

>  <canonical_smiles>  (58) 
CC1(C)NC(=O)N(c2ccc(C#N)c(C(F)(F)F)c2)C1=O

>  <standard_type>  (58) 
IC50

>  <standard_relation>  (58) 
=

>  <standard_value>  (58) 
6.0

>  <standard_units>  (58) 
nM

>  <target_pref_name>  (58) 
Androgen Receptor

>  <target_chembl_id>  (58) 
CHEMBL1871

>  <target_organism>  (58) 
Homo sapiens

>  <pchembl_median>  (58) 
5.89

$$$$
CHEMBL2113034
     RDKit          2D

 38 40  0  0  0  0  0  0  0  0999 V2000
    4.7302   -3.7586    0.0000 C   0  0  0  0  0  0  0  0  0  0  0  0
    3.3037   -4.2221    0.0000 C   0  0  0  0  0  0  0  0  0  0  0  0
    3.9138   -5.5924    0.0000 C   0  0  0  0  0  0  0  0  0  0  0  0
    2.9918   -2.7549    0.0000 C   0  0  0  0  0  0  0  0  0  0  0  0
    3.9955   -1.6402    0.0000 O   0  0  0  0  0  0  0  0  0  0  0  0
    1.5000   -2.5981    0.0000 N   0  0  0  0  0  0  0  0  0  0  0  0
    0.7500   -1.2990    0.0000 C   0  0  0  0  0  0  0  0  0  0  0  0
    1.5000    0.0000    0.0000 C   0  0  0  0  0  0  0  0  0  0  0  0
    0.7500    1.2990    0.0000 C   0  0  0  0  0  0  0  0  0  0  0  0
   -0.7500    1.2990    0.0000 C   0  0  0  0  0  0  0  0  0  0  0  0
   -1.5000    2.5981    0.0000 C   0  0  0  0  0  0  0  0  0  0  0  0
   -2.2500    3.8971    0.0000 N   0  0  0  0  0  0  0  0  0  0  0  0
   -1.5000    0.0000    0.0000 C   0  0  0  0  0  0  0  0  0  0  0  0
   -3.0000    0.0000    0.0000 C   0  0  0  0  0  0  0  0  0  0  0  0
   -4.5000    0.0000    0.0000 F   0  0  0  0  0  0  0  0  0  0  0  0
   -3.0000   -1.5000    0.0000 F   0  0  0  0  0  0  0  0  0  0  0  0
   -3.0000    1.5000    0.0000 F   0  0  0  0  0  0  0  0  0  0  0  0
   -0.7500   -1.2990    0.0000 C   0  0  0  0  0  0  0  0  0  0  0  0
    0.8899   -3.9684    0.0000 C   0  0  0  0  0  0  0  0  0  0  0  0
   -0.5773   -4.2803    0.0000 O   0  0  0  0  0  0  0  0  0  0  0  0
    2.0046   -4.9721    0.0000 N   0  0  0  0  0  0  0  0  0  0  0  0
    1.8478   -6.4639    0.0000 O   0  0  0  0  0  0  0  0  0  0  0  0
    0.4775   -7.0740    0.0000 C   0  0  0  0  0  0  0  0  0  0  0  0
    0.3207   -8.5658    0.0000 C   0  0  0  0  0  0  0  0  0  0  0  0
   -1.0496   -9.1759    0.0000 O   0  0  0  0  0  0  0  0  0  0  0  0
   -1.2064  -10.6676    0.0000 C   0  0  0  0  0  0  0  0  0  0  0  0
   -2.5767  -11.2778    0.0000 C   0  0  0  0  0  0  0  0  0  0  0  0
   -2.7335  -12.7695    0.0000 C   0  0  0  0  0  0  0  0  0  0  0  0
   -4.1038  -13.3796    0.0000 C   0  0  0  0  0  0  0  0  0  0  0  0
   -5.3174  -12.4980    0.0000 C   0  0  0  0  0  0  0  0  0  0  0  0
   -6.6877  -13.1081    0.0000 C   0  0  0  0  0  0  0  0  0  0  0  0
   -6.8445  -14.5999    0.0000 C   0  0  0  0  0  0  0  0  0  0  0  0
   -8.2148  -15.2100    0.0000 O   0  0  0  0  0  0  0  0  0  0  0  0
   -5.6309  -15.4815    0.0000 C   0  0  0  0  0  0  0  0  0  0  0  0
   -5.7877  -16.9733    0.0000 C   0  0  0  0  0  0  0  0  0  0  0  0
   -4.5742  -17.8550    0.0000 N   0  0  0  0  0  0  0  0  0  0  0  0
   -7.1581  -17.5834    0.0000 O   0  0  0  0  0  0  0  0  0  0  0  0
   -4.2606  -14.8714    0.0000 C   0  0  0  0  0  0  0  0  0  0  0  0
  1  2  1  0
  2  3  1  0
  2  4  1  0
  4  5  2  0
  4  6  1  0
  6  7  1  0
  7  8  2  0
  8  9  1  0
  9 10  2  0
 10 11  1  0
 11 12  3  0
 10 13  1  0
 13 14  1  0
 14 15  1  0
 14 16  1  0
 14 17  1  0
 13 18  2  0
  6 19  1  0
 19 20  2  0
 19 21  1  0
 21 22  1  0
 22 23  1  0
 23 24  1  0
 24 25  1  0
 25 26  1  0
 26 27  1  0
 27 28  1  0
 28 29  1  0
 29 30  2  0
 30 31  1  0
 31 32  2  0
 32 33  1  0
 32 34  1  0
 34 35  1  0
 35 36  1  0
 35 37  2  0
 34 38  2  0
 21  2  1  0
 38 29  1  0
 18  7  1  0
M  END
>  <assay_chembl_id>  (59) 
CHEMBL828424

>  <assay_description>  (59) 
Inhibition of [3H]mibolerone binding to human Androgen receptor of PC3/AR Cell Lysate

>  <parent_molecule_chembl_id>  (59) 
CHEMBL2113034

>  <canonical_smiles>  (59) 
CC1(C)C(=O)N(c2ccc(C#N)c(C(F)(F)F)c2)C(=O)N1OCCOCCCc1ccc(O)c(C(N)=O)c1

>  <standard_type>  (59) 
IC50

>  <standard_relation>  (59) 
=

>  <standard_value>  (59) 
77.0

>  <standard_units>  (59) 
nM

>  <target_pref_name>  (59) 
Androgen Receptor

>  <target_chembl_id>  (59) 
CHEMBL1871

>  <target_organism>  (59) 
Homo sapiens

>  <pchembl_median>  (59) 
5.8

$$$$
CHEMBL2113032
     RDKit          2D

 41 43  0  0  0  0  0  0  0  0999 V2000
    4.7302   -3.7586    0.0000 C   0  0  0  0  0  0  0  0  0  0  0  0
    3.3037   -4.2221    0.0000 C   0  0  0  0  0  0  0  0  0  0  0  0
    3.9138   -5.5924    0.0000 C   0  0  0  0  0  0  0  0  0  0  0  0
    2.9918   -2.7549    0.0000 C   0  0  0  0  0  0  0  0  0  0  0  0
    3.9955   -1.6402    0.0000 O   0  0  0  0  0  0  0  0  0  0  0  0
    1.5000   -2.5981    0.0000 N   0  0  0  0  0  0  0  0  0  0  0  0
    0.7500   -1.2990    0.0000 C   0  0  0  0  0  0  0  0  0  0  0  0
    1.5000    0.0000    0.0000 C   0  0  0  0  0  0  0  0  0  0  0  0
    0.7500    1.2990    0.0000 C   0  0  0  0  0  0  0  0  0  0  0  0
   -0.7500    1.2990    0.0000 C   0  0  0  0  0  0  0  0  0  0  0  0
   -1.5000    2.5981    0.0000 C   0  0  0  0  0  0  0  0  0  0  0  0
   -2.2500    3.8971    0.0000 N   0  0  0  0  0  0  0  0  0  0  0  0
   -1.5000    0.0000    0.0000 C   0  0  0  0  0  0  0  0  0  0  0  0
   -3.0000    0.0000    0.0000 C   0  0  0  0  0  0  0  0  0  0  0  0
   -4.5000    0.0000    0.0000 F   0  0  0  0  0  0  0  0  0  0  0  0
   -3.0000   -1.5000    0.0000 F   0  0  0  0  0  0  0  0  0  0  0  0
   -3.0000    1.5000    0.0000 F   0  0  0  0  0  0  0  0  0  0  0  0
   -0.7500   -1.2990    0.0000 C   0  0  0  0  0  0  0  0  0  0  0  0
    0.8899   -3.9684    0.0000 C   0  0  0  0  0  0  0  0  0  0  0  0
   -0.5773   -4.2803    0.0000 O   0  0  0  0  0  0  0  0  0  0  0  0
    2.0046   -4.9721    0.0000 N   0  0  0  0  0  0  0  0  0  0  0  0
    1.8478   -6.4639    0.0000 O   0  0  0  0  0  0  0  0  0  0  0  0
    0.4775   -7.0740    0.0000 C   0  0  0  0  0  0  0  0  0  0  0  0
    0.3207   -8.5658    0.0000 C   0  0  0  0  0  0  0  0  0  0  0  0
   -1.0496   -9.1759    0.0000 O   0  0  0  0  0  0  0  0  0  0  0  0
   -1.2064  -10.6676    0.0000 C   0  0  0  0  0  0  0  0  0  0  0  0
   -2.5767  -11.2778    0.0000 C   0  0  0  0  0  0  0  0  0  0  0  0
   -2.7335  -12.7695    0.0000 O   0  0  0  0  0  0  0  0  0  0  0  0
   -4.1038  -13.3796    0.0000 C   0  0  0  0  0  0  0  0  0  0  0  0
   -4.2606  -14.8714    0.0000 C   0  0  0  0  0  0  0  0  0  0  0  0
   -5.6309  -15.4815    0.0000 C   0  0  0  0  0  0  0  0  0  0  0  0
   -5.7877  -16.9733    0.0000 C   0  0  0  0  0  0  0  0  0  0  0  0
   -7.1581  -17.5834    0.0000 C   0  0  0  0  0  0  0  0  0  0  0  0
   -7.3148  -19.0752    0.0000 C   0  0  0  0  0  0  0  0  0  0  0  0
   -6.1013  -19.9569    0.0000 C   0  0  0  0  0  0  0  0  0  0  0  0
   -6.2581  -21.4487    0.0000 O   0  0  0  0  0  0  0  0  0  0  0  0
   -4.7310  -19.3468    0.0000 C   0  0  0  0  0  0  0  0  0  0  0  0
   -3.5175  -20.2285    0.0000 C   0  0  0  0  0  0  0  0  0  0  0  0
   -2.1472  -19.6183    0.0000 N   0  0  0  0  0  0  0  0  0  0  0  0
   -3.6743  -21.7202    0.0000 O   0  0  0  0  0  0  0  0  0  0  0  0
   -4.5742  -17.8550    0.0000 C   0  0  0  0  0  0  0  0  0  0  0  0
  1  2  1  0
  2  3  1  0
  2  4  1  0
  4  5  2  0
  4  6  1  0
  6  7  1  0
  7  8  2  0
  8  9  1  0
  9 10  2  0
 10 11  1  0
 11 12  3  0
 10 13  1  0
 13 14  1  0
 14 15  1  0
 14 16  1  0
 14 17  1  0
 13 18  2  0
  6 19  1  0
 19 20  2  0
 19 21  1  0
 21 22  1  0
 22 23  1  0
 23 24  1  0
 24 25  1  0
 25 26  1  0
 26 27  1  0
 27 28  1  0
 28 29  1  0
 29 30  1  0
 30 31  1  0
 31 32  1  0
 32 33  2  0
 33 34  1  0
 34 35  2  0
 35 36  1  0
 35 37  1  0
 37 38  1  0
 38 39  1  0
 38 40  2  0
 37 41  2  0
 21  2  1  0
 41 32  1  0
 18  7  1  0
M  END
>  <assay_chembl_id>  (60) 
CHEMBL828424

>  <assay_description>  (60) 
Inhibition of [3H]mibolerone binding to human Androgen receptor of PC3/AR Cell Lysate

>  <parent_molecule_chembl_id>  (60) 
CHEMBL2113032

>  <canonical_smiles>  (60) 
CC1(C)C(=O)N(c2ccc(C#N)c(C(F)(F)F)c2)C(=O)N1OCCOCCOCCCc1ccc(O)c(C(N)=O)c1

>  <standard_type>  (60) 
IC50

>  <standard_relation>  (60) 
=

>  <standard_value>  (60) 
332.0

>  <standard_units>  (60) 
nM

>  <target_pref_name>  (60) 
Androgen Receptor

>  <target_chembl_id>  (60) 
CHEMBL1871

>  <target_organism>  (60) 
Homo sapiens

>  <pchembl_median>  (60) 
5.005

$$$$
CHEMBL2113036
     RDKit          2D

 37 39  0  0  0  0  0  0  0  0999 V2000
    4.7302   -3.7586    0.0000 C   0  0  0  0  0  0  0  0  0  0  0  0
    3.3037   -4.2221    0.0000 C   0  0  0  0  0  0  0  0  0  0  0  0
    3.9138   -5.5924    0.0000 C   0  0  0  0  0  0  0  0  0  0  0  0
    2.9918   -2.7549    0.0000 C   0  0  0  0  0  0  0  0  0  0  0  0
    3.9955   -1.6402    0.0000 O   0  0  0  0  0  0  0  0  0  0  0  0
    1.5000   -2.5981    0.0000 N   0  0  0  0  0  0  0  0  0  0  0  0
    0.7500   -1.2990    0.0000 C   0  0  0  0  0  0  0  0  0  0  0  0
    1.5000    0.0000    0.0000 C   0  0  0  0  0  0  0  0  0  0  0  0
    0.7500    1.2990    0.0000 C   0  0  0  0  0  0  0  0  0  0  0  0
   -0.7500    1.2990    0.0000 C   0  0  0  0  0  0  0  0  0  0  0  0
   -1.5000    2.5981    0.0000 C   0  0  0  0  0  0  0  0  0  0  0  0
   -2.2500    3.8971    0.0000 N   0  0  0  0  0  0  0  0  0  0  0  0
   -1.5000    0.0000    0.0000 C   0  0  0  0  0  0  0  0  0  0  0  0
   -3.0000    0.0000    0.0000 C   0  0  0  0  0  0  0  0  0  0  0  0
   -4.5000    0.0000    0.0000 F   0  0  0  0  0  0  0  0  0  0  0  0
   -3.0000   -1.5000    0.0000 F   0  0  0  0  0  0  0  0  0  0  0  0
   -3.0000    1.5000    0.0000 F   0  0  0  0  0  0  0  0  0  0  0  0
   -0.7500   -1.2990    0.0000 C   0  0  0  0  0  0  0  0  0  0  0  0
    0.8899   -3.9684    0.0000 C   0  0  0  0  0  0  0  0  0  0  0  0
   -0.5773   -4.2803    0.0000 O   0  0  0  0  0  0  0  0  0  0  0  0
    2.0046   -4.9721    0.0000 N   0  0  0  0  0  0  0  0  0  0  0  0
    1.8478   -6.4639    0.0000 O   0  0  0  0  0  0  0  0  0  0  0  0
    0.4775   -7.0740    0.0000 C   0  0  0  0  0  0  0  0  0  0  0  0
    0.3207   -8.5658    0.0000 C   0  0  0  0  0  0  0  0  0  0  0  0
    0.1639  -10.0575    0.0000 C   0  0  0  0  0  0  0  0  0  0  0  0
    0.0071  -11.5493    0.0000 C   0  0  0  0  0  0  0  0  0  0  0  0
   -1.3632  -12.1594    0.0000 C   0  0  0  0  0  0  0  0  0  0  0  0
   -1.5200  -13.6512    0.0000 C   0  0  0  0  0  0  0  0  0  0  0  0
   -2.8903  -14.2613    0.0000 C   0  0  0  0  0  0  0  0  0  0  0  0
   -3.0471  -15.7531    0.0000 C   0  0  0  0  0  0  0  0  0  0  0  0
   -1.8336  -16.6348    0.0000 C   0  0  0  0  0  0  0  0  0  0  0  0
   -1.9904  -18.1266    0.0000 O   0  0  0  0  0  0  0  0  0  0  0  0
   -0.4633  -16.0247    0.0000 C   0  0  0  0  0  0  0  0  0  0  0  0
    0.7503  -16.9064    0.0000 C   0  0  0  0  0  0  0  0  0  0  0  0
    2.1206  -16.2962    0.0000 N   0  0  0  0  0  0  0  0  0  0  0  0
    0.5935  -18.3981    0.0000 O   0  0  0  0  0  0  0  0  0  0  0  0
   -0.3065  -14.5329    0.0000 C   0  0  0  0  0  0  0  0  0  0  0  0
  1  2  1  0
  2  3  1  0
  2  4  1  0
  4  5  2  0
  4  6  1  0
  6  7  1  0
  7  8  2  0
  8  9  1  0
  9 10  2  0
 10 11  1  0
 11 12  3  0
 10 13  1  0
 13 14  1  0
 14 15  1  0
 14 16  1  0
 14 17  1  0
 13 18  2  0
  6 19  1  0
 19 20  2  0
 19 21  1  0
 21 22  1  0
 22 23  1  0
 23 24  1  0
 24 25  3  0
 25 26  1  0
 26 27  1  0
 27 28  1  0
 28 29  2  0
 29 30  1  0
 30 31  2  0
 31 32  1  0
 31 33  1  0
 33 34  1  0
 34 35  1  0
 34 36  2  0
 33 37  2  0
 21  2  1  0
 37 28  1  0
 18  7  1  0
M  END
>  <assay_chembl_id>  (61) 
CHEMBL828424

>  <assay_description>  (61) 
Inhibition of [3H]mibolerone binding to human Androgen receptor of PC3/AR Cell Lysate

>  <parent_molecule_chembl_id>  (61) 
CHEMBL2113036

>  <canonical_smiles>  (61) 
CC1(C)C(=O)N(c2ccc(C#N)c(C(F)(F)F)c2)C(=O)N1OCC#CCCc1ccc(O)c(C(N)=O)c1

>  <standard_type>  (61) 
IC50

>  <standard_relation>  (61) 
=

>  <standard_value>  (61) 
49.0

>  <standard_units>  (61) 
nM

>  <target_pref_name>  (61) 
Androgen Receptor

>  <target_chembl_id>  (61) 
CHEMBL1871

>  <target_organism>  (61) 
Homo sapiens

>  <pchembl_median>  (61) 
6.29

$$$$
CHEMBL347556
     RDKit          2D

 46 49  0  0  0  0  0  0  0  0999 V2000
    4.7302   -3.7586    0.0000 C   0  0  0  0  0  0  0  0  0  0  0  0
    3.3037   -4.2221    0.0000 C   0  0  0  0  0  0  0  0  0  0  0  0
    3.9138   -5.5924    0.0000 C   0  0  0  0  0  0  0  0  0  0  0  0
    2.9918   -2.7549    0.0000 C   0  0  0  0  0  0  0  0  0  0  0  0
    3.9955   -1.6402    0.0000 O   0  0  0  0  0  0  0  0  0  0  0  0
    1.5000   -2.5981    0.0000 N   0  0  0  0  0  0  0  0  0  0  0  0
    0.7500   -1.2990    0.0000 C   0  0  0  0  0  0  0  0  0  0  0  0
    1.5000    0.0000    0.0000 C   0  0  0  0  0  0  0  0  0  0  0  0
    0.7500    1.2990    0.0000 C   0  0  0  0  0  0  0  0  0  0  0  0
   -0.7500    1.2990    0.0000 C   0  0  0  0  0  0  0  0  0  0  0  0
   -1.5000    2.5981    0.0000 C   0  0  0  0  0  0  0  0  0  0  0  0
   -2.2500    3.8971    0.0000 N   0  0  0  0  0  0  0  0  0  0  0  0
   -1.5000    0.0000    0.0000 C   0  0  0  0  0  0  0  0  0  0  0  0
   -3.0000    0.0000    0.0000 C   0  0  0  0  0  0  0  0  0  0  0  0
   -4.5000    0.0000    0.0000 F   0  0  0  0  0  0  0  0  0  0  0  0
   -3.0000   -1.5000    0.0000 F   0  0  0  0  0  0  0  0  0  0  0  0
   -3.0000    1.5000    0.0000 F   0  0  0  0  0  0  0  0  0  0  0  0
   -0.7500   -1.2990    0.0000 C   0  0  0  0  0  0  0  0  0  0  0  0
    0.8899   -3.9684    0.0000 C   0  0  0  0  0  0  0  0  0  0  0  0
   -0.5773   -4.2803    0.0000 O   0  0  0  0  0  0  0  0  0  0  0  0
    2.0046   -4.9721    0.0000 N   0  0  0  0  0  0  0  0  0  0  0  0
    1.8478   -6.4639    0.0000 C   0  0  0  0  0  0  0  0  0  0  0  0
    0.4775   -7.0740    0.0000 C   0  0  0  0  0  0  0  0  0  0  0  0
    0.3207   -8.5658    0.0000 O   0  0  0  0  0  0  0  0  0  0  0  0
   -1.0496   -9.1759    0.0000 C   0  0  0  0  0  0  0  0  0  0  0  0
   -1.2064  -10.6676    0.0000 C   0  0  0  0  0  0  0  0  0  0  0  0
   -2.5767  -11.2778    0.0000 N   0  0  0  0  0  0  0  0  0  0  0  0
   -3.7902  -10.3961    0.0000 C   0  0  0  0  0  0  0  0  0  0  0  0
   -5.1606  -11.0062    0.0000 C   0  0  0  0  0  0  0  0  0  0  0  0
   -5.3174  -12.4980    0.0000 N   0  0  0  0  0  0  0  0  0  0  0  0
   -6.6877  -13.1081    0.0000 C   0  0  0  0  0  0  0  0  0  0  0  0
   -7.9012  -12.2264    0.0000 C   0  0  0  0  0  0  0  0  0  0  0  0
   -9.2715  -12.8365    0.0000 O   0  0  0  0  0  0  0  0  0  0  0  0
  -10.4850  -11.9548    0.0000 C   0  0  0  0  0  0  0  0  0  0  0  0
  -11.8554  -12.5649    0.0000 C   0  0  0  0  0  0  0  0  0  0  0  0
  -13.0689  -11.6832    0.0000 C   0  0  0  0  0  0  0  0  0  0  0  0
  -14.4392  -12.2933    0.0000 C   0  0  0  0  0  0  0  0  0  0  0  0
  -14.5960  -13.7851    0.0000 C   0  0  0  0  0  0  0  0  0  0  0  0
  -15.9663  -14.3952    0.0000 O   0  0  0  0  0  0  0  0  0  0  0  0
  -13.3825  -14.6668    0.0000 C   0  0  0  0  0  0  0  0  0  0  0  0
  -13.5393  -16.1586    0.0000 C   0  0  0  0  0  0  0  0  0  0  0  0
  -12.3257  -17.0403    0.0000 N   0  0  0  0  0  0  0  0  0  0  0  0
  -14.9096  -16.7687    0.0000 O   0  0  0  0  0  0  0  0  0  0  0  0
  -12.0122  -14.0567    0.0000 C   0  0  0  0  0  0  0  0  0  0  0  0
   -4.1038  -13.3796    0.0000 C   0  0  0  0  0  0  0  0  0  0  0  0
   -2.7335  -12.7695    0.0000 C   0  0  0  0  0  0  0  0  0  0  0  0
  1  2  1  0
  2  3  1  0
  2  4  1  0
  4  5  2  0
  4  6  1  0
  6  7  1  0
  7  8  2  0
  8  9  1  0
  9 10  2  0
 10 11  1  0
 11 12  3  0
 10 13  1  0
 13 14  1  0
 14 15  1  0
 14 16  1  0
 14 17  1  0
 13 18  2  0
  6 19  1  0
 19 20  2  0
 19 21  1  0
 21 22  1  0
 22 23  1  0
 23 24  1  0
 24 25  1  0
 25 26  1  0
 26 27  1  0
 27 28  1  0
 28 29  1  0
 29 30  1  0
 30 31  1  0
 31 32  1  0
 32 33  1  0
 33 34  1  0
 34 35  1  0
 35 36  2  0
 36 37  1  0
 37 38  2  0
 38 39  1  0
 38 40  1  0
 40 41  1  0
 41 42  1  0
 41 43  2  0
 40 44  2  0
 30 45  1  0
 45 46  1  0
 21  2  1  0
 46 27  1  0
 18  7  1  0
 44 35  1  0
M  END
>  <assay_chembl_id>  (62) 
CHEMBL828424

>  <assay_description>  (62) 
Inhibition of [3H]mibolerone binding to human Androgen receptor of PC3/AR Cell Lysate

>  <parent_molecule_chembl_id>  (62) 
CHEMBL347556

>  <canonical_smiles>  (62) 
CC1(C)C(=O)N(c2ccc(C#N)c(C(F)(F)F)c2)C(=O)N1CCOCCN1CCN(CCOCc2ccc(O)c(C(N)=O)c2)CC1

>  <standard_type>  (62) 
IC50

>  <standard_relation>  (62) 
=

>  <standard_value>  (62) 
346.0

>  <standard_units>  (62) 
nM

>  <target_pref_name>  (62) 
Androgen Receptor

>  <target_chembl_id>  (62) 
CHEMBL1871

>  <target_organism>  (62) 
Homo sapiens

>  <pchembl_median>  (62) 
6.545

$$$$
CHEMBL264131
     RDKit          2D

 77 84  0  0  0  0  0  0  0  0999 V2000
    3.7500   -1.2990    0.0000 C   0  0  0  0  0  0  0  0  0  0  0  0
    3.0000    0.0000    0.0000 O   0  0  0  0  0  0  0  0  0  0  0  0
    1.5000    0.0000    0.0000 C   0  0  0  0  0  0  0  0  0  0  0  0
    0.7500   -1.2990    0.0000 C   0  0  0  0  0  0  0  0  0  0  0  0
   -0.7500   -1.2990    0.0000 C   0  0  0  0  0  0  0  0  0  0  0  0
   -1.5000    0.0000    0.0000 C   0  0  0  0  0  0  0  0  0  0  0  0
   -0.7500    1.2990    0.0000 C   0  0  0  0  0  0  0  0  0  0  0  0
    0.7500    1.2990    0.0000 C   0  0  0  0  0  0  0  0  0  0  0  0
    1.5000    2.5981    0.0000 C   0  0  0  0  0  0  0  0  0  0  0  0
    3.0000    2.5981    0.0000 O   0  0  0  0  0  0  0  0  0  0  0  0
    0.7500    3.8971    0.0000 C   0  0  0  0  0  0  0  0  0  0  0  0
    1.5000    5.1962    0.0000 C   0  0  0  0  0  0  0  0  0  0  0  0
    3.0000    5.1962    0.0000 O   0  0  0  0  0  0  0  0  0  0  0  0
    0.7500    6.4952    0.0000 C   0  0  0  0  0  0  0  0  0  0  0  0
   -0.7500    6.4952    0.0000 C   0  0  0  0  0  0  0  0  0  0  0  0
   -1.5000    5.1962    0.0000 C   0  0  0  0  0  0  0  0  0  0  0  0
   -3.0000    5.1962    0.0000 O   0  0  0  0  0  0  0  0  0  0  0  0
   -0.7500    3.8971    0.0000 C   0  0  0  0  0  0  0  0  0  0  0  0
   -1.5000    2.5981    0.0000 C   0  0  0  0  0  0  0  0  0  0  0  0
   -3.0000    2.5981    0.0000 O   0  0  0  0  0  0  0  0  0  0  0  0
   -1.5000    7.7942    0.0000 C   0  0  0  0  0  0  0  0  0  0  0  0
   -0.7500    9.0933    0.0000 C   0  0  0  0  0  0  0  0  0  0  0  0
   -2.1595    9.6063    0.0000 O   0  0  0  0  0  0  0  0  0  0  0  0
   -0.4895   10.5705    0.0000 C   0  0  0  0  0  0  0  0  0  0  0  0
    0.9200   11.0835    0.0000 O   0  0  0  0  0  0  0  0  0  0  0  0
   -1.6386   11.5347    0.0000 C   0  0  0  0  0  0  0  0  0  0  0  0
   -1.3781   13.0119    0.0000 O   0  0  0  0  0  0  0  0  0  0  0  0
    0.7500    9.0933    0.0000 C   0  0  0  0  0  0  0  0  0  0  0  0
    1.5000    7.7942    0.0000 C   0  0  0  0  0  0  0  0  0  0  0  0
    3.0000    7.7942    0.0000 O   0  0  0  0  0  0  0  0  0  0  0  0
    3.7500    9.0933    0.0000 C   0  0  0  0  0  0  0  0  0  0  0  0
    5.2500    9.0933    0.0000 C   0  0  0  0  0  0  0  0  0  0  0  0
    6.0000   10.3923    0.0000 C   0  0  0  0  0  0  0  0  0  0  0  0
    7.5000   10.3923    0.0000 N   0  0  0  0  0  0  0  0  0  0  0  0
    8.2500    9.0933    0.0000 C   0  0  0  0  0  0  0  0  0  0  0  0
    9.7500    9.0933    0.0000 N   0  0  0  0  0  0  0  0  0  0  0  0
   10.5000    7.7942    0.0000 C   0  0  0  0  0  0  0  0  0  0  0  0
    9.7500    6.4952    0.0000 O   0  0  0  0  0  0  0  0  0  0  0  0
   12.0000    7.7942    0.0000 C   0  0  0  0  0  0  0  0  0  0  0  0
   12.7500    6.4952    0.0000 C   0  0  0  0  0  0  0  0  0  0  0  0
   14.2500    6.4952    0.0000 C   0  0  0  0  0  0  0  0  0  0  0  0
   15.0000    5.1962    0.0000 C   0  0  0  0  0  0  0  0  0  0  0  0
   14.2500    3.8971    0.0000 O   0  0  0  0  0  0  0  0  0  0  0  0
   15.0000    2.5981    0.0000 C   0  0  0  0  0  0  0  0  0  0  0  0
   14.2500    1.2990    0.0000 C   0  0  0  0  0  0  0  0  0  0  0  0
   13.5000    0.0000    0.0000 C   0  0  0  0  0  0  0  0  0  0  0  0
   12.7500   -1.2990    0.0000 C   0  0  0  0  0  0  0  0  0  0  0  0
   13.5000   -2.5981    0.0000 N   0  0  0  0  0  0  0  0  0  0  0  0
   14.9918   -2.7549    0.0000 C   0  0  0  0  0  0  0  0  0  0  0  0
   15.9955   -1.6402    0.0000 O   0  0  0  0  0  0  0  0  0  0  0  0
   15.3037   -4.2221    0.0000 N   0  0  0  0  0  0  0  0  0  0  0  0
   16.6740   -4.8322    0.0000 C   0  0  0  0  0  0  0  0  0  0  0  0
   16.8308   -6.3240    0.0000 C   0  0  0  0  0  0  0  0  0  0  0  0
   18.2011   -6.9341    0.0000 C   0  0  0  0  0  0  0  0  0  0  0  0
   19.4146   -6.0524    0.0000 C   0  0  0  0  0  0  0  0  0  0  0  0
   20.7849   -6.6625    0.0000 C   0  0  0  0  0  0  0  0  0  0  0  0
   22.1552   -7.2726    0.0000 N   0  0  0  0  0  0  0  0  0  0  0  0
   19.2578   -4.5606    0.0000 C   0  0  0  0  0  0  0  0  0  0  0  0
   20.4713   -3.6789    0.0000 C   0  0  0  0  0  0  0  0  0  0  0  0
   21.6849   -2.7973    0.0000 F   0  0  0  0  0  0  0  0  0  0  0  0
   19.5897   -2.4654    0.0000 F   0  0  0  0  0  0  0  0  0  0  0  0
   21.3530   -4.8925    0.0000 F   0  0  0  0  0  0  0  0  0  0  0  0
   17.8875   -3.9505    0.0000 C   0  0  0  0  0  0  0  0  0  0  0  0
   14.0046   -4.9721    0.0000 C   0  0  0  0  0  0  0  0  0  0  0  0
   13.8478   -6.4639    0.0000 O   0  0  0  0  0  0  0  0  0  0  0  0
   12.8899   -3.9684    0.0000 C   0  0  0  0  0  0  0  0  0  0  0  0
   12.0082   -5.1819    0.0000 C   0  0  0  0  0  0  0  0  0  0  0  0
   11.5909   -3.2184    0.0000 C   0  0  0  0  0  0  0  0  0  0  0  0
   15.0000    7.7942    0.0000 C   0  0  0  0  0  0  0  0  0  0  0  0
   14.2500    9.0933    0.0000 C   0  0  0  0  0  0  0  0  0  0  0  0
   12.7500    9.0933    0.0000 C   0  0  0  0  0  0  0  0  0  0  0  0
   12.0000   10.3923    0.0000 O   0  0  0  0  0  0  0  0  0  0  0  0
    5.2500   11.6913    0.0000 C   0  0  0  0  0  0  0  0  0  0  0  0
    6.0000   12.9904    0.0000 O   0  0  0  0  0  0  0  0  0  0  0  0
    3.7500   11.6913    0.0000 C   0  0  0  0  0  0  0  0  0  0  0  0
    3.0000   12.9904    0.0000 C   0  0  0  0  0  0  0  0  0  0  0  0
    3.0000   10.3923    0.0000 O   0  0  0  0  0  0  0  0  0  0  0  0
  1  2  1  0
  2  3  1  0
  3  4  2  0
  4  5  1  0
  5  6  2  0
  6  7  1  0
  7  8  2  0
  8  9  1  0
  9 10  2  0
  9 11  1  0
 11 12  2  0
 12 13  1  0
 12 14  1  0
 14 15  2  0
 15 16  1  0
 16 17  1  0
 16 18  2  0
 18 19  1  0
 19 20  2  0
 15 21  1  0
 21 22  1  0
 22 23  1  6
 22 24  1  0
 24 25  2  0
 24 26  1  0
 26 27  1  0
 22 28  1  0
 28 29  1  0
 29 30  1  0
 30 31  1  0
 31 32  1  0
 32 33  1  0
 33 34  1  1
 34 35  1  0
 35 36  1  0
 36 37  1  0
 37 38  2  0
 37 39  1  0
 39 40  2  0
 40 41  1  0
 41 42  1  0
 42 43  1  0
 43 44  1  0
 44 45  1  0
 45 46  3  0
 46 47  1  0
 47 48  1  0
 48 49  1  0
 49 50  2  0
 49 51  1  0
 51 52  1  0
 52 53  2  0
 53 54  1  0
 54 55  2  0
 55 56  1  0
 56 57  3  0
 55 58  1  0
 58 59  1  0
 59 60  1  0
 59 61  1  0
 59 62  1  0
 58 63  2  0
 51 64  1  0
 64 65  2  0
 64 66  1  0
 66 67  1  0
 66 68  1  0
 41 69  2  0
 69 70  1  0
 70 71  2  0
 71 72  1  0
 33 73  1  0
 73 74  1  1
 73 75  1  0
 75 76  1  1
 75 77  1  0
  8  3  1  0
 18 11  1  0
 77 31  1  0
 19  7  1  0
 71 39  1  0
 29 14  1  0
 66 48  1  0
 63 52  1  0
M  END
>  <assay_chembl_id>  (63) 
CHEMBL828424

>  <assay_description>  (63) 
Inhibition of [3H]mibolerone binding to human Androgen receptor of PC3/AR Cell Lysate

>  <parent_molecule_chembl_id>  (63) 
CHEMBL264131

>  <canonical_smiles>  (63) 
COc1cccc2c1C(=O)c1c(O)c3c(c(O)c1C2=O)C[C@@](O)(C(=O)CO)CC3OC1C[C@H](NCNC(=O)c2cc(COCC#CCN3C(=O)N(c4ccc(C#N)c(C(F)(F)F)c4)C(=O)C3(C)C)ccc2O)[C@H](O)[C@H](C)O1

>  <standard_type>  (63) 
IC50

>  <standard_relation>  (63) 
=

>  <standard_value>  (63) 
90.0

>  <standard_units>  (63) 
nM

>  <target_pref_name>  (63) 
Androgen Receptor

>  <target_chembl_id>  (63) 
CHEMBL1871

>  <target_organism>  (63) 
Homo sapiens

>  <pchembl_median>  (63) 
5.9

$$$$
CHEMBL386437
     RDKit          2D

 82 89  0  0  0  0  0  0  0  0999 V2000
   12.0000   -5.1962    0.0000 C   0  0  0  0  0  0  0  0  0  0  0  0
   12.7500   -6.4952    0.0000 C   0  0  0  0  0  0  0  0  0  0  0  0
   12.0000   -7.7942    0.0000 C   0  0  0  0  0  0  0  0  0  0  0  0
   12.7500   -9.0933    0.0000 C   0  0  0  0  0  0  0  0  0  0  0  0
   14.2500   -9.0933    0.0000 O   0  0  0  0  0  0  0  0  0  0  0  0
   12.0000  -10.3923    0.0000 O   0  0  0  0  0  0  0  0  0  0  0  0
   12.7500  -11.6913    0.0000 C   0  0  0  0  0  0  0  0  0  0  0  0
   14.2500  -11.6913    0.0000 C   0  0  0  0  0  0  0  0  0  0  0  0
   15.0000  -12.9904    0.0000 C   0  0  0  0  0  0  0  0  0  0  0  0
   14.2500  -14.2894    0.0000 C   0  0  0  0  0  0  0  0  0  0  0  0
   15.0000  -15.5885    0.0000 C   0  0  0  0  0  0  0  0  0  0  0  0
   14.2500  -16.8875    0.0000 O   0  0  0  0  0  0  0  0  0  0  0  0
   15.0000  -18.1865    0.0000 C   0  0  0  0  0  0  0  0  0  0  0  0
   14.2500  -19.4856    0.0000 C   0  0  0  0  0  0  0  0  0  0  0  0
   13.5000  -20.7846    0.0000 C   0  0  0  0  0  0  0  0  0  0  0  0
   12.7500  -22.0836    0.0000 C   0  0  0  0  0  0  0  0  0  0  0  0
   13.5000  -23.3827    0.0000 N   0  0  0  0  0  0  0  0  0  0  0  0
   14.9918  -23.5395    0.0000 C   0  0  0  0  0  0  0  0  0  0  0  0
   15.9955  -22.4248    0.0000 O   0  0  0  0  0  0  0  0  0  0  0  0
   15.3037  -25.0067    0.0000 N   0  0  0  0  0  0  0  0  0  0  0  0
   16.6740  -25.6168    0.0000 C   0  0  0  0  0  0  0  0  0  0  0  0
   16.8308  -27.1086    0.0000 C   0  0  0  0  0  0  0  0  0  0  0  0
   18.2011  -27.7187    0.0000 C   0  0  0  0  0  0  0  0  0  0  0  0
   19.4146  -26.8370    0.0000 C   0  0  0  0  0  0  0  0  0  0  0  0
   20.7849  -27.4471    0.0000 C   0  0  0  0  0  0  0  0  0  0  0  0
   22.1552  -28.0572    0.0000 N   0  0  0  0  0  0  0  0  0  0  0  0
   19.2578  -25.3452    0.0000 C   0  0  0  0  0  0  0  0  0  0  0  0
   20.4713  -24.4636    0.0000 C   0  0  0  0  0  0  0  0  0  0  0  0
   21.6849  -23.5819    0.0000 F   0  0  0  0  0  0  0  0  0  0  0  0
   19.5897  -23.2500    0.0000 F   0  0  0  0  0  0  0  0  0  0  0  0
   21.3530  -25.6771    0.0000 F   0  0  0  0  0  0  0  0  0  0  0  0
   17.8875  -24.7351    0.0000 C   0  0  0  0  0  0  0  0  0  0  0  0
   14.0046  -25.7567    0.0000 C   0  0  0  0  0  0  0  0  0  0  0  0
   13.8478  -27.2485    0.0000 O   0  0  0  0  0  0  0  0  0  0  0  0
   12.8899  -24.7530    0.0000 C   0  0  0  0  0  0  0  0  0  0  0  0
   12.0082  -25.9665    0.0000 C   0  0  0  0  0  0  0  0  0  0  0  0
   11.5909  -24.0030    0.0000 C   0  0  0  0  0  0  0  0  0  0  0  0
   12.7500  -14.2894    0.0000 C   0  0  0  0  0  0  0  0  0  0  0  0
   12.0000  -12.9904    0.0000 C   0  0  0  0  0  0  0  0  0  0  0  0
   10.5000  -12.9904    0.0000 C   0  0  0  0  0  0  0  0  0  0  0  0
    9.7500  -14.2894    0.0000 O   0  0  0  0  0  0  0  0  0  0  0  0
    9.7500  -11.6913    0.0000 N   0  0  0  0  0  0  0  0  0  0  0  0
    8.2500  -11.6913    0.0000 C   0  0  0  0  0  0  0  0  0  0  0  0
    7.5000  -10.3923    0.0000 N   0  0  0  0  0  0  0  0  0  0  0  0
    6.0000  -10.3923    0.0000 C   0  0  0  0  0  0  0  0  0  0  0  0
    5.2500   -9.0933    0.0000 C   0  0  0  0  0  0  0  0  0  0  0  0
    3.7500   -9.0933    0.0000 C   0  0  0  0  0  0  0  0  0  0  0  0
    3.0000   -7.7942    0.0000 O   0  0  0  0  0  0  0  0  0  0  0  0
    1.5000   -7.7942    0.0000 C   0  0  0  0  0  0  0  0  0  0  0  0
    0.7500   -9.0933    0.0000 C   0  0  0  0  0  0  0  0  0  0  0  0
   -0.7500   -9.0933    0.0000 C   0  0  0  0  0  0  0  0  0  0  0  0
   -0.4895  -10.5705    0.0000 O   0  0  0  0  0  0  0  0  0  0  0  0
   -2.1595   -9.6063    0.0000 C   0  0  0  0  0  0  0  0  0  0  0  0
   -3.3086   -8.6421    0.0000 O   0  0  0  0  0  0  0  0  0  0  0  0
   -2.4200  -11.0835    0.0000 C   0  0  0  0  0  0  0  0  0  0  0  0
   -3.8296  -11.5965    0.0000 O   0  0  0  0  0  0  0  0  0  0  0  0
   -1.5000   -7.7942    0.0000 C   0  0  0  0  0  0  0  0  0  0  0  0
   -0.7500   -6.4952    0.0000 C   0  0  0  0  0  0  0  0  0  0  0  0
   -1.5000   -5.1962    0.0000 C   0  0  0  0  0  0  0  0  0  0  0  0
   -3.0000   -5.1962    0.0000 O   0  0  0  0  0  0  0  0  0  0  0  0
   -0.7500   -3.8971    0.0000 C   0  0  0  0  0  0  0  0  0  0  0  0
    0.7500   -3.8971    0.0000 C   0  0  0  0  0  0  0  0  0  0  0  0
    1.5000   -5.1962    0.0000 C   0  0  0  0  0  0  0  0  0  0  0  0
    3.0000   -5.1962    0.0000 O   0  0  0  0  0  0  0  0  0  0  0  0
    0.7500   -6.4952    0.0000 C   0  0  0  0  0  0  0  0  0  0  0  0
    1.5000   -2.5981    0.0000 C   0  0  0  0  0  0  0  0  0  0  0  0
    3.0000   -2.5981    0.0000 O   0  0  0  0  0  0  0  0  0  0  0  0
    0.7500   -1.2990    0.0000 C   0  0  0  0  0  0  0  0  0  0  0  0
    1.5000    0.0000    0.0000 C   0  0  0  0  0  0  0  0  0  0  0  0
    3.0000    0.0000    0.0000 O   0  0  0  0  0  0  0  0  0  0  0  0
    3.7500    1.2990    0.0000 C   0  0  0  0  0  0  0  0  0  0  0  0
    0.7500    1.2990    0.0000 C   0  0  0  0  0  0  0  0  0  0  0  0
   -0.7500    1.2990    0.0000 C   0  0  0  0  0  0  0  0  0  0  0  0
   -1.5000    0.0000    0.0000 C   0  0  0  0  0  0  0  0  0  0  0  0
   -0.7500   -1.2990    0.0000 C   0  0  0  0  0  0  0  0  0  0  0  0
   -1.5000   -2.5981    0.0000 C   0  0  0  0  0  0  0  0  0  0  0  0
   -3.0000   -2.5981    0.0000 O   0  0  0  0  0  0  0  0  0  0  0  0
    3.0000  -10.3923    0.0000 O   0  0  0  0  0  0  0  0  0  0  0  0
    3.7500  -11.6913    0.0000 C   0  0  0  0  0  0  0  0  0  0  0  0
    3.0000  -12.9904    0.0000 C   0  0  0  0  0  0  0  0  0  0  0  0
    5.2500  -11.6913    0.0000 C   0  0  0  0  0  0  0  0  0  0  0  0
    6.0000  -12.9904    0.0000 O   0  0  0  0  0  0  0  0  0  0  0  0
  1  2  1  0
  2  3  1  0
  3  4  1  0
  4  5  2  0
  4  6  1  0
  6  7  1  0
  7  8  2  0
  8  9  1  0
  9 10  2  0
 10 11  1  0
 11 12  1  0
 12 13  1  0
 13 14  1  0
 14 15  3  0
 15 16  1  0
 16 17  1  0
 17 18  1  0
 18 19  2  0
 18 20  1  0
 20 21  1  0
 21 22  2  0
 22 23  1  0
 23 24  2  0
 24 25  1  0
 25 26  3  0
 24 27  1  0
 27 28  1  0
 28 29  1  0
 28 30  1  0
 28 31  1  0
 27 32  2  0
 20 33  1  0
 33 34  2  0
 33 35  1  0
 35 36  1  0
 35 37  1  0
 10 38  1  0
 38 39  2  0
 39 40  1  0
 40 41  2  0
 40 42  1  0
 42 43  1  0
 43 44  1  0
 45 44  1  6
 45 46  1  0
 46 47  1  0
 47 48  1  0
 48 49  1  0
 49 50  1  0
 50 51  1  0
 51 52  1  1
 51 53  1  0
 53 54  2  0
 53 55  1  0
 55 56  1  0
 51 57  1  0
 57 58  1  0
 58 59  2  0
 59 60  1  0
 59 61  1  0
 61 62  2  0
 62 63  1  0
 63 64  1  0
 63 65  2  0
 62 66  1  0
 66 67  2  0
 66 68  1  0
 68 69  2  0
 69 70  1  0
 70 71  1  0
 69 72  1  0
 72 73  2  0
 73 74  1  0
 74 75  2  0
 75 76  1  0
 76 77  2  0
 47 78  1  0
 78 79  1  0
 79 80  1  6
 79 81  1  0
 81 82  1  6
 39  7  1  0
 81 45  1  0
 35 17  1  0
 65 49  1  0
 75 68  1  0
 32 21  1  0
 65 58  1  0
 76 61  1  0
M  END
>  <assay_chembl_id>  (64) 
CHEMBL828424

>  <assay_description>  (64) 
Inhibition of [3H]mibolerone binding to human Androgen receptor of PC3/AR Cell Lysate

>  <parent_molecule_chembl_id>  (64) 
CHEMBL386437

>  <canonical_smiles>  (64) 
CCCC(=O)Oc1ccc(COCC#CCN2C(=O)N(c3ccc(C#N)c(C(F)(F)F)c3)C(=O)C2(C)C)cc1C(=O)NCN[C@H]1CC(OC2C[C@](O)(C(=O)CO)Cc3c(O)c4c(c(O)c32)C(=O)c2c(OC)cccc2C4=O)O[C@@H](C)[C@H]1O

>  <standard_type>  (64) 
IC50

>  <standard_relation>  (64) 
=

>  <standard_value>  (64) 
63.0

>  <standard_units>  (64) 
nM

>  <target_pref_name>  (64) 
Androgen Receptor

>  <target_chembl_id>  (64) 
CHEMBL1871

>  <target_organism>  (64) 
Homo sapiens

>  <pchembl_median>  (64) 
6.06

$$$$
CHEMBL806
     RDKit          2D

 19 19  0  0  0  0  0  0  0  0999 V2000
    6.0000   -2.5981    0.0000 C   0  0  0  0  0  0  0  0  0  0  0  0
    5.2500   -1.2990    0.0000 C   0  0  0  0  0  0  0  0  0  0  0  0
    6.0000    0.0000    0.0000 C   0  0  0  0  0  0  0  0  0  0  0  0
    3.7500   -1.2990    0.0000 C   0  0  0  0  0  0  0  0  0  0  0  0
    3.0000   -2.5981    0.0000 O   0  0  0  0  0  0  0  0  0  0  0  0
    3.0000    0.0000    0.0000 N   0  0  0  0  0  0  0  0  0  0  0  0
    1.5000    0.0000    0.0000 C   0  0  0  0  0  0  0  0  0  0  0  0
    0.7500   -1.2990    0.0000 C   0  0  0  0  0  0  0  0  0  0  0  0
   -0.7500   -1.2990    0.0000 C   0  0  0  0  0  0  0  0  0  0  0  0
   -1.5000    0.0000    0.0000 C   0  0  0  0  0  0  0  0  0  0  0  0
   -3.0000    0.0000    0.0000 N   0  0  0  0  0  4  0  0  0  0  0  0
   -3.7500    1.2990    0.0000 O   0  0  0  0  0  0  0  0  0  0  0  0
   -3.7500   -1.2990    0.0000 O   0  0  0  0  0  1  0  0  0  0  0  0
   -0.7500    1.2990    0.0000 C   0  0  0  0  0  0  0  0  0  0  0  0
   -1.5000    2.5981    0.0000 C   0  0  0  0  0  0  0  0  0  0  0  0
   -2.2500    3.8971    0.0000 F   0  0  0  0  0  0  0  0  0  0  0  0
   -0.2010    3.3481    0.0000 F   0  0  0  0  0  0  0  0  0  0  0  0
   -2.7990    1.8481    0.0000 F   0  0  0  0  0  0  0  0  0  0  0  0
    0.7500    1.2990    0.0000 C   0  0  0  0  0  0  0  0  0  0  0  0
  1  2  1  0
  2  3  1  0
  2  4  1  0
  4  5  2  0
  4  6  1  0
  6  7  1  0
  7  8  2  0
  8  9  1  0
  9 10  2  0
 10 11  1  0
 11 12  2  0
 11 13  1  0
 10 14  1  0
 14 15  1  0
 15 16  1  0
 15 17  1  0
 15 18  1  0
 14 19  2  0
 19  7  1  0
M  CHG  2  11   1  13  -1
M  END
>  <assay_chembl_id>  (65) 
CHEMBL828424

>  <assay_description>  (65) 
Inhibition of [3H]mibolerone binding to human Androgen receptor of PC3/AR Cell Lysate

>  <parent_molecule_chembl_id>  (65) 
CHEMBL806

>  <canonical_smiles>  (65) 
CC(C)C(=O)Nc1ccc([N+](=O)[O-])c(C(F)(F)F)c1

>  <standard_type>  (65) 
IC50

>  <standard_relation>  (65) 
=

>  <standard_value>  (65) 
154.0

>  <standard_units>  (65) 
nM

>  <target_pref_name>  (65) 
Androgen Receptor

>  <target_chembl_id>  (65) 
CHEMBL1871

>  <target_organism>  (65) 
Homo sapiens

>  <pchembl_median>  (65) 
5.79

$$$$
CHEMBL190225
     RDKit          2D

 39 42  0  0  0  0  0  0  0  0999 V2000
   -1.5000    2.5981    0.0000 C   0  0  0  0  0  0  0  0  0  0  0  0
   -0.7500    1.2990    0.0000 C   0  0  0  0  0  0  0  0  0  0  0  0
   -1.5000   -0.0000    0.0000 C   0  0  0  0  0  0  0  0  0  0  0  0
   -3.0000   -0.0000    0.0000 N   0  0  0  0  0  0  0  0  0  0  0  0
   -3.7500   -1.2990    0.0000 S   0  0  0  0  0  0  0  0  0  0  0  0
   -4.5000   -2.5981    0.0000 C   0  0  0  0  0  0  0  0  0  0  0  0
   -2.4510   -2.0490    0.0000 O   0  0  0  0  0  0  0  0  0  0  0  0
   -5.0490   -0.5490    0.0000 O   0  0  0  0  0  0  0  0  0  0  0  0
   -0.7500   -1.2990    0.0000 C   0  0  0  0  0  0  0  0  0  0  0  0
    0.7500   -1.2990    0.0000 C   0  0  0  0  0  0  0  0  0  0  0  0
    1.5000    0.0000    0.0000 C   0  0  0  0  0  0  0  0  0  0  0  0
    0.7500    1.2990    0.0000 C   0  0  0  0  0  0  0  0  0  0  0  0
    1.5000    2.5981    0.0000 N   0  0  0  0  0  0  0  0  0  0  0  0
    0.7500    3.8971    0.0000 C   0  0  0  0  0  0  0  0  0  0  0  0
    1.5000    5.1962    0.0000 C   0  0  0  0  0  0  0  0  0  0  0  0
    3.0000    5.1962    0.0000 C   0  0  0  0  0  0  0  0  0  0  0  0
    3.7500    6.4952    0.0000 C   0  0  0  0  0  0  0  0  0  0  0  0
    3.0000    7.7942    0.0000 C   0  0  0  0  0  0  0  0  0  0  0  0
    1.5000    7.7942    0.0000 C   0  0  0  0  0  0  0  0  0  0  0  0
    0.7500    6.4952    0.0000 C   0  0  0  0  0  0  0  0  0  0  0  0
    3.0000    2.5981    0.0000 C   0  0  0  0  0  0  0  0  0  0  0  0
    3.7500    1.2990    0.0000 C   0  0  0  0  0  0  0  0  0  0  0  0
    5.2500    1.2990    0.0000 C   0  0  0  0  0  0  0  0  0  0  0  0
    6.0000   -0.0000    0.0000 C   0  0  0  0  0  0  0  0  0  0  0  0
    5.2500   -1.2990    0.0000 C   0  0  0  0  0  0  0  0  0  0  0  0
    6.0000   -2.5981    0.0000 O   0  0  0  0  0  0  0  0  0  0  0  0
    7.5000   -2.5981    0.0000 C   0  0  0  0  0  0  0  0  0  0  0  0
    8.2500   -1.2990    0.0000 C   0  0  0  0  0  0  0  0  0  0  0  0
    9.7500   -1.2990    0.0000 C   0  0  0  0  0  0  0  0  0  0  0  0
   10.5000   -2.5981    0.0000 C   0  0  0  0  0  0  0  0  0  0  0  0
   12.0000   -2.5981    0.0000 O   0  0  0  0  0  0  0  0  0  0  0  0
   12.7500   -1.2990    0.0000 C   0  0  0  0  0  0  0  0  0  0  0  0
   14.2500   -1.2990    0.0000 C   0  0  0  0  0  0  0  0  0  0  0  0
   15.0000   -2.5981    0.0000 O   0  0  0  0  0  0  0  0  0  0  0  0
   15.0000   -0.0000    0.0000 O   0  0  0  0  0  0  0  0  0  0  0  0
    9.7500   -3.8971    0.0000 C   0  0  0  0  0  0  0  0  0  0  0  0
    8.2500   -3.8971    0.0000 C   0  0  0  0  0  0  0  0  0  0  0  0
    3.7500   -1.2990    0.0000 C   0  0  0  0  0  0  0  0  0  0  0  0
    3.0000   -0.0000    0.0000 C   0  0  0  0  0  0  0  0  0  0  0  0
  1  2  1  0
  2  3  2  0
  3  4  1  0
  4  5  1  0
  5  6  1  0
  5  7  2  0
  5  8  2  0
  3  9  1  0
  9 10  2  0
 10 11  1  0
 11 12  2  0
 12 13  1  0
 13 14  1  0
 14 15  1  0
 15 16  2  0
 16 17  1  0
 17 18  2  0
 18 19  1  0
 19 20  2  0
 13 21  1  0
 21 22  1  0
 22 23  2  0
 23 24  1  0
 24 25  2  0
 25 26  1  0
 26 27  1  0
 27 28  2  0
 28 29  1  0
 29 30  2  0
 30 31  1  0
 31 32  1  0
 32 33  1  0
 33 34  2  0
 33 35  1  0
 30 36  1  0
 36 37  2  0
 25 38  1  0
 38 39  2  0
 12  2  1  0
 20 15  1  0
 39 22  1  0
 37 27  1  0
M  END
>  <assay_chembl_id>  (66) 
CHEMBL833026

>  <assay_description>  (66) 
Inhibition of human androgen receptor

>  <parent_molecule_chembl_id>  (66) 
CHEMBL190225

>  <canonical_smiles>  (66) 
Cc1c(NS(C)(=O)=O)cccc1N(Cc1ccccc1)Cc1ccc(Oc2ccc(OCC(=O)O)cc2)cc1

>  <standard_type>  (66) 
IC50

>  <standard_relation>  (66) 
=

>  <standard_value>  (66) 
11700.0

>  <standard_units>  (66) 
nM

>  <target_pref_name>  (66) 
Androgen Receptor

>  <target_chembl_id>  (66) 
CHEMBL1871

>  <target_organism>  (66) 
Homo sapiens

>  <pchembl_median>  (66) 
7.11

$$$$
CHEMBL190109
     RDKit          2D

 42 45  0  0  0  0  0  0  0  0999 V2000
   -1.5000    2.5981    0.0000 C   0  0  0  0  0  0  0  0  0  0  0  0
   -0.7500    1.2990    0.0000 C   0  0  0  0  0  0  0  0  0  0  0  0
   -1.5000   -0.0000    0.0000 C   0  0  0  0  0  0  0  0  0  0  0  0
   -3.0000   -0.0000    0.0000 N   0  0  0  0  0  0  0  0  0  0  0  0
   -3.7500   -1.2990    0.0000 S   0  0  0  0  0  0  0  0  0  0  0  0
   -4.5000   -2.5981    0.0000 C   0  0  0  0  0  0  0  0  0  0  0  0
   -2.4510   -2.0490    0.0000 O   0  0  0  0  0  0  0  0  0  0  0  0
   -5.0490   -0.5490    0.0000 O   0  0  0  0  0  0  0  0  0  0  0  0
   -0.7500   -1.2990    0.0000 C   0  0  0  0  0  0  0  0  0  0  0  0
    0.7500   -1.2990    0.0000 C   0  0  0  0  0  0  0  0  0  0  0  0
    1.5000    0.0000    0.0000 C   0  0  0  0  0  0  0  0  0  0  0  0
    0.7500    1.2990    0.0000 C   0  0  0  0  0  0  0  0  0  0  0  0
    1.5000    2.5981    0.0000 N   0  0  0  0  0  0  0  0  0  0  0  0
    0.7500    3.8971    0.0000 C   0  0  0  0  0  0  0  0  0  0  0  0
    1.5000    5.1962    0.0000 C   0  0  0  0  0  0  0  0  0  0  0  0
    3.0000    5.1962    0.0000 C   0  0  0  0  0  0  0  0  0  0  0  0
    3.7500    6.4952    0.0000 C   0  0  0  0  0  0  0  0  0  0  0  0
    3.0000    7.7942    0.0000 C   0  0  0  0  0  0  0  0  0  0  0  0
    3.7500    9.0933    0.0000 O   0  0  0  0  0  0  0  0  0  0  0  0
    3.0000   10.3923    0.0000 C   0  0  0  0  0  0  0  0  0  0  0  0
    3.7500   11.6913    0.0000 C   0  0  0  0  0  0  0  0  0  0  0  0
    3.0000   12.9904    0.0000 C   0  0  0  0  0  0  0  0  0  0  0  0
    1.5000   12.9904    0.0000 C   0  0  0  0  0  0  0  0  0  0  0  0
    0.7500   14.2894    0.0000 Cl  0  0  0  0  0  0  0  0  0  0  0  0
    0.7500   11.6913    0.0000 C   0  0  0  0  0  0  0  0  0  0  0  0
   -0.7500   11.6913    0.0000 O   0  0  0  0  0  0  0  0  0  0  0  0
   -1.5000   10.3923    0.0000 C   0  0  0  0  0  0  0  0  0  0  0  0
   -3.0000   10.3923    0.0000 C   0  0  0  0  0  0  0  0  0  0  0  0
   -3.7500   11.6913    0.0000 O   0  0  0  0  0  0  0  0  0  0  0  0
   -3.7500    9.0933    0.0000 O   0  0  0  0  0  0  0  0  0  0  0  0
    1.5000   10.3923    0.0000 C   0  0  0  0  0  0  0  0  0  0  0  0
    1.5000    7.7942    0.0000 C   0  0  0  0  0  0  0  0  0  0  0  0
    0.7500    6.4952    0.0000 C   0  0  0  0  0  0  0  0  0  0  0  0
    3.0000    2.5981    0.0000 C   0  0  0  0  0  0  0  0  0  0  0  0
    3.7500    1.2990    0.0000 C   0  0  0  0  0  0  0  0  0  0  0  0
    3.0000   -0.0000    0.0000 C   0  0  0  0  0  0  0  0  0  0  0  0
    3.7500   -1.2990    0.0000 C   0  0  0  0  0  0  0  0  0  0  0  0
    5.2500   -1.2990    0.0000 C   0  0  0  0  0  0  0  0  0  0  0  0
    6.0000   -2.5981    0.0000 F   0  0  0  0  0  0  0  0  0  0  0  0
    6.0000    0.0000    0.0000 C   0  0  0  0  0  0  0  0  0  0  0  0
    5.2500    1.2990    0.0000 C   0  0  0  0  0  0  0  0  0  0  0  0
    6.0000    2.5981    0.0000 F   0  0  0  0  0  0  0  0  0  0  0  0
  1  2  1  0
  2  3  2  0
  3  4  1  0
  4  5  1  0
  5  6  1  0
  5  7  2  0
  5  8  2  0
  3  9  1  0
  9 10  2  0
 10 11  1  0
 11 12  2  0
 12 13  1  0
 13 14  1  0
 14 15  1  0
 15 16  2  0
 16 17  1  0
 17 18  2  0
 18 19  1  0
 19 20  1  0
 20 21  2  0
 21 22  1  0
 22 23  2  0
 23 24  1  0
 23 25  1  0
 25 26  1  0
 26 27  1  0
 27 28  1  0
 28 29  2  0
 28 30  1  0
 25 31  2  0
 18 32  1  0
 32 33  2  0
 13 34  1  0
 34 35  1  0
 35 36  2  0
 36 37  1  0
 37 38  2  0
 38 39  1  0
 38 40  1  0
 40 41  2  0
 41 42  1  0
 12  2  1  0
 33 15  1  0
 41 35  1  0
 31 20  1  0
M  END
>  <assay_chembl_id>  (67) 
CHEMBL833026

>  <assay_description>  (67) 
Inhibition of human androgen receptor

>  <parent_molecule_chembl_id>  (67) 
CHEMBL190109

>  <canonical_smiles>  (67) 
Cc1c(NS(C)(=O)=O)cccc1N(Cc1ccc(Oc2ccc(Cl)c(OCC(=O)O)c2)cc1)Cc1ccc(F)cc1F

>  <standard_type>  (67) 
IC50

>  <standard_relation>  (67) 
=

>  <standard_value>  (67) 
3600.0

>  <standard_units>  (67) 
nM

>  <target_pref_name>  (67) 
Androgen Receptor

>  <target_chembl_id>  (67) 
CHEMBL1871

>  <target_organism>  (67) 
Homo sapiens

>  <pchembl_median>  (67) 
8.22

$$$$
CHEMBL363151
     RDKit          2D

 31 35  0  0  0  0  0  0  0  0999 V2000
   -5.7135  -10.5199    0.0000 C   0  0  0  0  0  0  0  0  0  0  0  0
   -4.9635   -9.2208    0.0000 C   0  0  0  0  0  0  0  0  0  0  0  0
   -4.2135   -7.9218    0.0000 C   0  0  0  0  0  0  0  0  0  0  0  0
   -3.4635   -6.6227    0.0000 C   0  0  0  0  0  0  0  0  0  0  0  0
   -4.8980   -6.1842    0.0000 O   0  0  0  0  0  0  0  0  0  0  0  0
   -2.2500   -7.5044    0.0000 C   0  0  0  0  0  0  0  0  0  0  0  0
   -1.0365   -6.6227    0.0000 C   0  0  0  0  0  0  0  0  0  0  0  0
   -1.5000   -5.1962    0.0000 C   0  0  0  0  0  0  0  0  0  0  0  0
   -0.7500   -3.8971    0.0000 C   0  0  0  0  0  0  0  0  0  0  0  0
    0.7500   -3.8971    0.0000 C   0  0  0  0  0  0  0  0  0  0  0  0
    1.5000   -2.5981    0.0000 C   0  0  0  0  0  0  0  0  0  0  0  0
    0.7500   -1.2990    0.0000 C   0  0  0  0  0  0  0  0  0  0  0  0
    1.5000    0.0000    0.0000 C   0  0  0  0  0  0  0  0  0  0  0  0
    0.7500    1.2990    0.0000 C   0  0  0  0  0  0  0  0  0  0  0  0
    1.5000    2.5981    0.0000 O   0  0  0  0  0  0  0  0  0  0  0  0
   -0.7500    1.2990    0.0000 C   0  0  0  0  0  0  0  0  0  0  0  0
   -1.5000    0.0000    0.0000 C   0  0  0  0  0  0  0  0  0  0  0  0
   -0.7500   -1.2990    0.0000 C   0  0  0  0  0  0  0  0  0  0  0  0
   -2.2500   -1.2990    0.0000 C   0  0  0  0  0  0  0  0  0  0  0  0
   -3.0000    0.0000    0.0000 C   0  0  0  0  0  0  0  0  0  0  0  0
   -2.2500    1.2990    0.0000 C   0  0  0  0  0  0  0  0  0  0  0  0
   -3.0000    2.5981    0.0000 C   0  0  0  0  0  0  0  0  0  0  0  0
   -4.5000    2.5981    0.0000 C   0  0  0  0  0  0  0  0  0  0  0  0
   -5.2500    3.8971    0.0000 C   0  0  0  0  0  0  0  0  0  0  0  0
   -5.2500    1.2990    0.0000 C   0  0  0  0  0  0  0  0  0  0  0  0
   -4.5000    0.0000    0.0000 C   0  0  0  0  0  0  0  0  0  0  0  0
   -1.5000   -2.5981    0.0000 C   0  0  0  0  0  0  0  0  0  0  0  0
   -3.0000   -2.5981    0.0000 C   0  0  0  0  0  0  0  0  0  0  0  0
   -3.7500   -3.8971    0.0000 C   0  0  0  0  0  0  0  0  0  0  0  0
   -3.0000   -5.1962    0.0000 C   0  0  0  0  0  0  0  0  0  0  0  0
   -4.4998   -5.1699    0.0000 C   0  0  0  0  0  0  0  0  0  0  0  0
  1  2  1  0
  2  3  3  0
  3  4  1  0
  4  5  1  6
  4  6  1  0
  6  7  1  0
  8  7  1  6
  8  9  1  0
  9 10  1  1
 10 11  1  0
 11 12  1  0
 12 13  2  0
 13 14  1  0
 14 15  2  0
 14 16  1  0
 16 17  1  0
 17 18  1  0
 18 19  1  6
 19 20  1  0
 20 21  2  0
 21 22  1  0
 22 23  2  0
 23 24  1  0
 23 25  1  0
 25 26  2  0
 18 27  1  0
 27 28  2  0
 28 29  1  0
 29 30  1  0
 30 31  1  6
 30  4  1  0
 30  8  1  0
 27  9  1  0
 18 12  1  0
 26 20  1  0
M  END
>  <assay_chembl_id>  (68) 
CHEMBL833026

>  <assay_description>  (68) 
Inhibition of human androgen receptor

>  <parent_molecule_chembl_id>  (68) 
CHEMBL363151

>  <canonical_smiles>  (68) 
CC#C[C@]1(O)CC[C@H]2[C@@H]3CCC4=CC(=O)CC[C@]4(Cc4ccc(C)cc4)C3=CC[C@@]21C

>  <standard_type>  (68) 
IC50

>  <standard_relation>  (68) 
=

>  <standard_value>  (68) 
6500.0

>  <standard_units>  (68) 
nM

>  <target_pref_name>  (68) 
Androgen Receptor

>  <target_chembl_id>  (68) 
CHEMBL1871

>  <target_organism>  (68) 
Homo sapiens

>  <pchembl_median>  (68) 
5.8

$$$$
CHEMBL185265
     RDKit          2D

 47 50  0  0  0  0  0  0  0  0999 V2000
   -1.5000    2.5981    0.0000 C   0  0  0  0  0  0  0  0  0  0  0  0
   -0.7500    3.8971    0.0000 C   0  0  0  0  0  0  0  0  0  0  0  0
   -1.5000    5.1962    0.0000 C   0  0  0  0  0  0  0  0  0  0  0  0
   -3.0000    5.1962    0.0000 N   0  0  0  0  0  0  0  0  0  0  0  0
   -3.7500    6.4952    0.0000 S   0  0  0  0  0  0  0  0  0  0  0  0
   -4.5000    7.7942    0.0000 C   0  0  0  0  0  0  0  0  0  0  0  0
   -2.4510    7.2452    0.0000 O   0  0  0  0  0  0  0  0  0  0  0  0
   -5.0490    5.7452    0.0000 O   0  0  0  0  0  0  0  0  0  0  0  0
   -0.7500    6.4952    0.0000 C   0  0  0  0  0  0  0  0  0  0  0  0
    0.7500    6.4952    0.0000 C   0  0  0  0  0  0  0  0  0  0  0  0
    1.5000    5.1962    0.0000 C   0  0  0  0  0  0  0  0  0  0  0  0
    0.7500    3.8971    0.0000 C   0  0  0  0  0  0  0  0  0  0  0  0
    1.5000    2.5981    0.0000 N   0  0  0  0  0  0  0  0  0  0  0  0
    0.7500    1.2990    0.0000 C   0  0  0  0  0  0  0  0  0  0  0  0
    1.5000   -0.0000    0.0000 C   0  0  0  0  0  0  0  0  0  0  0  0
    3.0000   -0.0000    0.0000 C   0  0  0  0  0  0  0  0  0  0  0  0
    3.7500   -1.2990    0.0000 C   0  0  0  0  0  0  0  0  0  0  0  0
    3.0000   -2.5981    0.0000 C   0  0  0  0  0  0  0  0  0  0  0  0
    1.5000   -2.5981    0.0000 C   0  0  0  0  0  0  0  0  0  0  0  0
    0.7500   -1.2990    0.0000 C   0  0  0  0  0  0  0  0  0  0  0  0
    3.0000    2.5981    0.0000 C   0  0  0  0  0  0  0  0  0  0  0  0
    3.7500    3.8971    0.0000 C   0  0  0  0  0  0  0  0  0  0  0  0
    5.2500    3.8971    0.0000 C   0  0  0  0  0  0  0  0  0  0  0  0
    6.0000    5.1962    0.0000 C   0  0  0  0  0  0  0  0  0  0  0  0
    5.2500    6.4952    0.0000 C   0  0  0  0  0  0  0  0  0  0  0  0
    6.0000    7.7942    0.0000 O   0  0  0  0  0  0  0  0  0  0  0  0
    7.5000    7.7942    0.0000 C   0  0  0  0  0  0  0  0  0  0  0  0
    8.2500    6.4952    0.0000 C   0  0  0  0  0  0  0  0  0  0  0  0
    9.7500    6.4952    0.0000 C   0  0  0  0  0  0  0  0  0  0  0  0
   10.5000    7.7942    0.0000 C   0  0  0  0  0  0  0  0  0  0  0  0
    9.7500    9.0933    0.0000 C   0  0  0  0  0  0  0  0  0  0  0  0
   10.5000   10.3923    0.0000 O   0  0  0  0  0  0  0  0  0  0  0  0
   12.0000   10.3923    0.0000 C   0  0  0  0  0  0  0  0  0  0  0  0
   12.7500   11.6913    0.0000 C   0  0  0  0  0  0  0  0  0  0  0  0
   14.2500   11.6913    0.0000 C   0  0  0  0  0  0  0  0  0  0  0  0
   15.0000   12.9904    0.0000 C   0  0  0  0  0  0  0  0  0  0  0  0
   14.2500   14.2894    0.0000 O   0  0  0  0  0  0  0  0  0  0  0  0
   16.5000   12.9904    0.0000 N   0  0  0  0  0  0  0  0  0  0  0  0
   17.2500   14.2894    0.0000 C   0  0  0  0  0  0  0  0  0  0  0  0
   18.7500   14.2894    0.0000 C   0  0  0  0  0  0  0  0  0  0  0  0
   19.5000   15.5885    0.0000 C   0  0  0  0  0  0  0  0  0  0  0  0
   21.0000   15.5885    0.0000 C   0  0  0  0  0  0  0  0  0  0  0  0
   21.7500   14.2894    0.0000 O   0  0  0  0  0  0  0  0  0  0  0  0
   21.7500   16.8875    0.0000 O   0  0  0  0  0  0  0  0  0  0  0  0
    8.2500    9.0933    0.0000 C   0  0  0  0  0  0  0  0  0  0  0  0
    3.7500    6.4952    0.0000 C   0  0  0  0  0  0  0  0  0  0  0  0
    3.0000    5.1962    0.0000 C   0  0  0  0  0  0  0  0  0  0  0  0
  1  2  1  0
  2  3  2  0
  3  4  1  0
  4  5  1  0
  5  6  1  0
  5  7  2  0
  5  8  2  0
  3  9  1  0
  9 10  2  0
 10 11  1  0
 11 12  2  0
 12 13  1  0
 13 14  1  0
 14 15  1  0
 15 16  2  0
 16 17  1  0
 17 18  2  0
 18 19  1  0
 19 20  2  0
 13 21  1  0
 21 22  1  0
 22 23  2  0
 23 24  1  0
 24 25  2  0
 25 26  1  0
 26 27  1  0
 27 28  2  0
 28 29  1  0
 29 30  2  0
 30 31  1  0
 31 32  1  0
 32 33  1  0
 33 34  1  0
 34 35  1  0
 35 36  1  0
 36 37  2  0
 36 38  1  0
 38 39  1  0
 39 40  1  0
 40 41  1  0
 41 42  1  0
 42 43  2  0
 42 44  1  0
 31 45  2  0
 25 46  1  0
 46 47  2  0
 12  2  1  0
 20 15  1  0
 47 22  1  0
 45 27  1  0
M  END
>  <assay_chembl_id>  (69) 
CHEMBL833026

>  <assay_description>  (69) 
Inhibition of human androgen receptor

>  <parent_molecule_chembl_id>  (69) 
CHEMBL185265

>  <canonical_smiles>  (69) 
Cc1c(NS(C)(=O)=O)cccc1N(Cc1ccccc1)Cc1ccc(Oc2cccc(OCCCC(=O)NCCCC(=O)O)c2)cc1

>  <standard_type>  (69) 
IC50

>  <standard_relation>  (69) 
=

>  <standard_value>  (69) 
1600.0

>  <standard_units>  (69) 
nM

>  <target_pref_name>  (69) 
Androgen Receptor

>  <target_chembl_id>  (69) 
CHEMBL1871

>  <target_organism>  (69) 
Homo sapiens

>  <pchembl_median>  (69) 
5.01

$$$$
CHEMBL197595
     RDKit          2D

 33 35  0  0  0  0  0  0  0  0999 V2000
    3.0000    0.0000    0.0000 C   0  0  0  0  0  0  0  0  0  0  0  0
    1.5000    0.0000    0.0000 C   0  0  0  0  0  0  0  0  0  0  0  0
    0.7500   -1.2990    0.0000 C   0  0  0  0  0  0  0  0  0  0  0  0
   -0.7500   -1.2990    0.0000 N   0  0  0  0  0  0  0  0  0  0  0  0
   -1.5000   -2.5981    0.0000 C   0  0  0  0  0  0  0  0  0  0  0  0
   -3.0000   -2.5981    0.0000 O   0  0  0  0  0  0  0  0  0  0  0  0
   -0.7500   -3.8971    0.0000 N   0  0  0  0  0  0  0  0  0  0  0  0
   -1.5000   -5.1962    0.0000 C   0  0  0  0  0  0  0  0  0  0  0  0
   -3.0000   -5.1962    0.0000 C   0  0  0  0  0  0  0  0  0  0  0  0
   -3.7500   -6.4952    0.0000 C   0  0  0  0  0  0  0  0  0  0  0  0
   -3.0000   -7.7942    0.0000 C   0  0  0  0  0  0  0  0  0  0  0  0
   -3.7500   -9.0933    0.0000 C   0  0  0  0  0  0  0  0  0  0  0  0
   -4.5000  -10.3923    0.0000 F   0  0  0  0  0  0  0  0  0  0  0  0
   -5.0490   -8.3433    0.0000 F   0  0  0  0  0  0  0  0  0  0  0  0
   -2.4510   -9.8433    0.0000 F   0  0  0  0  0  0  0  0  0  0  0  0
   -1.5000   -7.7942    0.0000 N   0  0  0  0  0  0  0  0  0  0  0  0
   -0.7500   -6.4952    0.0000 C   0  0  0  0  0  0  0  0  0  0  0  0
   -1.5000    0.0000    0.0000 C   0  0  0  0  0  0  0  0  0  0  0  0
   -3.0000    0.0000    0.0000 C   0  0  0  0  0  0  0  0  0  0  0  0
   -0.7500    1.2990    0.0000 C   0  0  0  0  0  0  0  0  0  0  0  0
    0.7500    1.2990    0.0000 N   0  0  0  0  0  0  0  0  0  0  0  0
    1.5000    2.5981    0.0000 C   0  0  0  0  0  0  0  0  0  0  0  0
    3.0000    2.5981    0.0000 C   0  0  0  0  0  0  0  0  0  0  0  0
    3.7500    3.8971    0.0000 C   0  0  0  0  0  0  0  0  0  0  0  0
    3.0000    5.1962    0.0000 C   0  0  0  0  0  0  0  0  0  0  0  0
    3.7500    6.4952    0.0000 C   0  0  0  0  0  0  0  0  0  0  0  0
    4.5000    7.7942    0.0000 N   0  0  0  0  0  0  0  0  0  0  0  0
    1.5000    5.1962    0.0000 C   0  0  0  0  0  0  0  0  0  0  0  0
    0.7500    6.4952    0.0000 C   0  0  0  0  0  0  0  0  0  0  0  0
    0.0000    7.7942    0.0000 F   0  0  0  0  0  0  0  0  0  0  0  0
   -0.5490    5.7452    0.0000 F   0  0  0  0  0  0  0  0  0  0  0  0
    2.0490    7.2452    0.0000 F   0  0  0  0  0  0  0  0  0  0  0  0
    0.7500    3.8971    0.0000 C   0  0  0  0  0  0  0  0  0  0  0  0
  2  1  1  1
  2  3  1  0
  3  4  1  0
  4  5  1  0
  5  6  2  0
  5  7  1  0
  7  8  1  0
  8  9  2  0
  9 10  1  0
 10 11  2  0
 11 12  1  0
 12 13  1  0
 12 14  1  0
 12 15  1  0
 11 16  1  0
 16 17  2  0
  4 18  1  0
 18 19  1  6
 18 20  1  0
 20 21  1  0
 21 22  1  0
 22 23  2  0
 23 24  1  0
 24 25  2  0
 25 26  1  0
 26 27  3  0
 25 28  1  0
 28 29  1  0
 29 30  1  0
 29 31  1  0
 29 32  1  0
 28 33  2  0
 21  2  1  0
 33 22  1  0
 17  8  1  0
M  END
>  <assay_chembl_id>  (70) 
CHEMBL863517

>  <assay_description>  (70) 
Inhibition of AR mediated transcriptional activation using reporter assay

>  <parent_molecule_chembl_id>  (70) 
CHEMBL197595

>  <canonical_smiles>  (70) 
C[C@H]1CN(C(=O)Nc2ccc(C(F)(F)F)nc2)[C@H](C)CN1c1ccc(C#N)c(C(F)(F)F)c1

>  <standard_type>  (70) 
IC50

>  <standard_relation>  (70) 
=

>  <standard_value>  (70) 
110.0

>  <standard_units>  (70) 
nM

>  <target_pref_name>  (70) 
Androgen Receptor

>  <target_chembl_id>  (70) 
CHEMBL1871

>  <target_organism>  (70) 
Homo sapiens

>  <pchembl_median>  (70) 
6.2

$$$$
CHEMBL202990
     RDKit          2D

 31 33  0  0  0  0  0  0  0  0999 V2000
    3.0000    0.0000    0.0000 C   0  0  0  0  0  0  0  0  0  0  0  0
    1.5000    0.0000    0.0000 C   0  0  0  0  0  0  0  0  0  0  0  0
    0.7500   -1.2990    0.0000 C   0  0  0  0  0  0  0  0  0  0  0  0
   -0.7500   -1.2990    0.0000 N   0  0  0  0  0  0  0  0  0  0  0  0
   -1.5000   -2.5981    0.0000 C   0  0  0  0  0  0  0  0  0  0  0  0
   -3.0000   -2.5981    0.0000 O   0  0  0  0  0  0  0  0  0  0  0  0
   -0.7500   -3.8971    0.0000 N   0  0  0  0  0  0  0  0  0  0  0  0
   -1.5000   -5.1962    0.0000 C   0  0  0  0  0  0  0  0  0  0  0  0
   -3.0000   -5.1962    0.0000 C   0  0  0  0  0  0  0  0  0  0  0  0
   -3.7500   -6.4952    0.0000 C   0  0  0  0  0  0  0  0  0  0  0  0
   -3.0000   -7.7942    0.0000 C   0  0  0  0  0  0  0  0  0  0  0  0
   -3.7500   -9.0933    0.0000 F   0  0  0  0  0  0  0  0  0  0  0  0
   -1.5000   -7.7942    0.0000 C   0  0  0  0  0  0  0  0  0  0  0  0
   -0.7500   -6.4952    0.0000 C   0  0  0  0  0  0  0  0  0  0  0  0
    0.7500   -6.4952    0.0000 F   0  0  0  0  0  0  0  0  0  0  0  0
   -1.5000    0.0000    0.0000 C   0  0  0  0  0  0  0  0  0  0  0  0
   -3.0000    0.0000    0.0000 C   0  0  0  0  0  0  0  0  0  0  0  0
   -0.7500    1.2990    0.0000 C   0  0  0  0  0  0  0  0  0  0  0  0
    0.7500    1.2990    0.0000 N   0  0  0  0  0  0  0  0  0  0  0  0
    1.5000    2.5981    0.0000 C   0  0  0  0  0  0  0  0  0  0  0  0
    3.0000    2.5981    0.0000 C   0  0  0  0  0  0  0  0  0  0  0  0
    3.7500    3.8971    0.0000 C   0  0  0  0  0  0  0  0  0  0  0  0
    3.0000    5.1962    0.0000 C   0  0  0  0  0  0  0  0  0  0  0  0
    3.7500    6.4952    0.0000 C   0  0  0  0  0  0  0  0  0  0  0  0
    4.5000    7.7942    0.0000 N   0  0  0  0  0  0  0  0  0  0  0  0
    1.5000    5.1962    0.0000 C   0  0  0  0  0  0  0  0  0  0  0  0
    0.7500    6.4952    0.0000 C   0  0  0  0  0  0  0  0  0  0  0  0
    0.0000    7.7942    0.0000 F   0  0  0  0  0  0  0  0  0  0  0  0
   -0.5490    5.7452    0.0000 F   0  0  0  0  0  0  0  0  0  0  0  0
    2.0490    7.2452    0.0000 F   0  0  0  0  0  0  0  0  0  0  0  0
    0.7500    3.8971    0.0000 C   0  0  0  0  0  0  0  0  0  0  0  0
  2  1  1  1
  2  3  1  0
  3  4  1  0
  4  5  1  0
  5  6  2  0
  5  7  1  0
  7  8  1  0
  8  9  2  0
  9 10  1  0
 10 11  2  0
 11 12  1  0
 11 13  1  0
 13 14  2  0
 14 15  1  0
  4 16  1  0
 16 17  1  6
 16 18  1  0
 18 19  1  0
 19 20  1  0
 20 21  2  0
 21 22  1  0
 22 23  2  0
 23 24  1  0
 24 25  3  0
 23 26  1  0
 26 27  1  0
 27 28  1  0
 27 29  1  0
 27 30  1  0
 26 31  2  0
 19  2  1  0
 31 20  1  0
 14  8  1  0
M  END
>  <assay_chembl_id>  (71) 
CHEMBL863517

>  <assay_description>  (71) 
Inhibition of AR mediated transcriptional activation using reporter assay

>  <parent_molecule_chembl_id>  (71) 
CHEMBL202990

>  <canonical_smiles>  (71) 
C[C@H]1CN(C(=O)Nc2ccc(F)cc2F)[C@H](C)CN1c1ccc(C#N)c(C(F)(F)F)c1

>  <standard_type>  (71) 
IC50

>  <standard_relation>  (71) 
=

>  <standard_value>  (71) 
200.0

>  <standard_units>  (71) 
nM

>  <target_pref_name>  (71) 
Androgen Receptor

>  <target_chembl_id>  (71) 
CHEMBL1871

>  <target_organism>  (71) 
Homo sapiens

>  <pchembl_median>  (71) 
7.31

$$$$
CHEMBL372390
     RDKit          2D

 33 35  0  0  0  0  0  0  0  0999 V2000
    3.0000    0.0000    0.0000 C   0  0  0  0  0  0  0  0  0  0  0  0
    1.5000    0.0000    0.0000 C   0  0  0  0  0  0  0  0  0  0  0  0
    0.7500   -1.2990    0.0000 C   0  0  0  0  0  0  0  0  0  0  0  0
   -0.7500   -1.2990    0.0000 N   0  0  0  0  0  0  0  0  0  0  0  0
   -1.5000   -2.5981    0.0000 C   0  0  0  0  0  0  0  0  0  0  0  0
   -3.0000   -2.5981    0.0000 C   0  0  0  0  0  0  0  0  0  0  0  0
   -3.7500   -3.8971    0.0000 C   0  0  0  0  0  0  0  0  0  0  0  0
   -3.0000   -5.1962    0.0000 C   0  0  0  0  0  0  0  0  0  0  0  0
   -3.7500   -6.4952    0.0000 C   0  0  0  0  0  0  0  0  0  0  0  0
   -4.5000   -7.7942    0.0000 N   0  0  0  0  0  0  0  0  0  0  0  0
   -1.5000   -5.1962    0.0000 C   0  0  0  0  0  0  0  0  0  0  0  0
   -0.7500   -6.4952    0.0000 C   0  0  0  0  0  0  0  0  0  0  0  0
   -0.0000   -7.7942    0.0000 F   0  0  0  0  0  0  0  0  0  0  0  0
    0.5490   -5.7452    0.0000 F   0  0  0  0  0  0  0  0  0  0  0  0
   -2.0490   -7.2452    0.0000 F   0  0  0  0  0  0  0  0  0  0  0  0
   -0.7500   -3.8971    0.0000 C   0  0  0  0  0  0  0  0  0  0  0  0
   -1.5000    0.0000    0.0000 C   0  0  0  0  0  0  0  0  0  0  0  0
   -3.0000    0.0000    0.0000 C   0  0  0  0  0  0  0  0  0  0  0  0
   -0.7500    1.2990    0.0000 C   0  0  0  0  0  0  0  0  0  0  0  0
    0.7500    1.2990    0.0000 N   0  0  0  0  0  0  0  0  0  0  0  0
    1.5000    2.5981    0.0000 C   0  0  0  0  0  0  0  0  0  0  0  0
    3.0000    2.5981    0.0000 O   0  0  0  0  0  0  0  0  0  0  0  0
    0.7500    3.8971    0.0000 N   0  0  0  0  0  0  0  0  0  0  0  0
    1.5000    5.1962    0.0000 C   0  0  0  0  0  0  0  0  0  0  0  0
    3.0000    5.1962    0.0000 C   0  0  0  0  0  0  0  0  0  0  0  0
    3.7500    6.4952    0.0000 C   0  0  0  0  0  0  0  0  0  0  0  0
    3.0000    7.7942    0.0000 C   0  0  0  0  0  0  0  0  0  0  0  0
    3.7500    9.0933    0.0000 C   0  0  0  0  0  0  0  0  0  0  0  0
    4.5000   10.3923    0.0000 F   0  0  0  0  0  0  0  0  0  0  0  0
    5.0490    8.3433    0.0000 F   0  0  0  0  0  0  0  0  0  0  0  0
    2.4510    9.8433    0.0000 F   0  0  0  0  0  0  0  0  0  0  0  0
    1.5000    7.7942    0.0000 N   0  0  0  0  0  0  0  0  0  0  0  0
    0.7500    6.4952    0.0000 C   0  0  0  0  0  0  0  0  0  0  0  0
  2  1  1  1
  2  3  1  0
  3  4  1  0
  4  5  1  0
  5  6  2  0
  6  7  1  0
  7  8  2  0
  8  9  1  0
  9 10  3  0
  8 11  1  0
 11 12  1  0
 12 13  1  0
 12 14  1  0
 12 15  1  0
 11 16  2  0
  4 17  1  0
 17 18  1  6
 17 19  1  0
 19 20  1  0
 20 21  1  0
 21 22  2  0
 21 23  1  0
 23 24  1  0
 24 25  2  0
 25 26  1  0
 26 27  2  0
 27 28  1  0
 28 29  1  0
 28 30  1  0
 28 31  1  0
 27 32  1  0
 32 33  2  0
 20  2  1  0
 33 24  1  0
 16  5  1  0
M  END
>  <assay_chembl_id>  (72) 
CHEMBL863517

>  <assay_description>  (72) 
Inhibition of AR mediated transcriptional activation using reporter assay

>  <parent_molecule_chembl_id>  (72) 
CHEMBL372390

>  <canonical_smiles>  (72) 
C[C@H]1CN(c2ccc(C#N)c(C(F)(F)F)c2)[C@H](C)CN1C(=O)Nc1ccc(C(F)(F)F)nc1

>  <standard_type>  (72) 
IC50

>  <standard_relation>  (72) 
=

>  <standard_value>  (72) 
1300.0

>  <standard_units>  (72) 
nM

>  <target_pref_name>  (72) 
Androgen Receptor

>  <target_chembl_id>  (72) 
CHEMBL1871

>  <target_organism>  (72) 
Homo sapiens

>  <pchembl_median>  (72) 
4.87

$$$$
CHEMBL202660
     RDKit          2D

 33 35  0  0  0  0  0  0  0  0999 V2000
    3.0000    0.0000    0.0000 C   0  0  0  0  0  0  0  0  0  0  0  0
    1.5000    0.0000    0.0000 C   0  0  0  0  0  0  0  0  0  0  0  0
    0.7500   -1.2990    0.0000 C   0  0  0  0  0  0  0  0  0  0  0  0
   -0.7500   -1.2990    0.0000 N   0  0  0  0  0  0  0  0  0  0  0  0
   -1.5000   -2.5981    0.0000 C   0  0  0  0  0  0  0  0  0  0  0  0
   -3.0000   -2.5981    0.0000 C   0  0  0  0  0  0  0  0  0  0  0  0
   -3.7500   -3.8971    0.0000 C   0  0  0  0  0  0  0  0  0  0  0  0
   -3.0000   -5.1962    0.0000 C   0  0  0  0  0  0  0  0  0  0  0  0
   -3.7500   -6.4952    0.0000 C   0  0  0  0  0  0  0  0  0  0  0  0
   -4.5000   -7.7942    0.0000 N   0  0  0  0  0  0  0  0  0  0  0  0
   -1.5000   -5.1962    0.0000 C   0  0  0  0  0  0  0  0  0  0  0  0
   -0.7500   -6.4952    0.0000 C   0  0  0  0  0  0  0  0  0  0  0  0
   -0.0000   -7.7942    0.0000 F   0  0  0  0  0  0  0  0  0  0  0  0
    0.5490   -5.7452    0.0000 F   0  0  0  0  0  0  0  0  0  0  0  0
   -2.0490   -7.2452    0.0000 F   0  0  0  0  0  0  0  0  0  0  0  0
   -0.7500   -3.8971    0.0000 C   0  0  0  0  0  0  0  0  0  0  0  0
   -1.5000    0.0000    0.0000 C   0  0  0  0  0  0  0  0  0  0  0  0
   -3.0000    0.0000    0.0000 C   0  0  0  0  0  0  0  0  0  0  0  0
   -0.7500    1.2990    0.0000 C   0  0  0  0  0  0  0  0  0  0  0  0
    0.7500    1.2990    0.0000 N   0  0  0  0  0  0  0  0  0  0  0  0
    1.5000    2.5981    0.0000 C   0  0  0  0  0  0  0  0  0  0  0  0
    3.0000    2.5981    0.0000 O   0  0  0  0  0  0  0  0  0  0  0  0
    0.7500    3.8971    0.0000 N   0  0  0  0  0  0  0  0  0  0  0  0
    1.5000    5.1962    0.0000 C   0  0  0  0  0  0  0  0  0  0  0  0
    3.0000    5.1962    0.0000 C   0  0  0  0  0  0  0  0  0  0  0  0
    3.7500    6.4952    0.0000 C   0  0  0  0  0  0  0  0  0  0  0  0
    3.0000    7.7942    0.0000 C   0  0  0  0  0  0  0  0  0  0  0  0
    3.7500    9.0933    0.0000 C   0  0  0  0  0  0  0  0  0  0  0  0
    4.5000   10.3923    0.0000 F   0  0  0  0  0  0  0  0  0  0  0  0
    5.0490    8.3433    0.0000 F   0  0  0  0  0  0  0  0  0  0  0  0
    2.4510    9.8433    0.0000 F   0  0  0  0  0  0  0  0  0  0  0  0
    1.5000    7.7942    0.0000 N   0  0  0  0  0  0  0  0  0  0  0  0
    0.7500    6.4952    0.0000 C   0  0  0  0  0  0  0  0  0  0  0  0
  1  2  1  0
  2  3  1  0
  3  4  1  0
  4  5  1  0
  5  6  2  0
  6  7  1  0
  7  8  2  0
  8  9  1  0
  9 10  3  0
  8 11  1  0
 11 12  1  0
 12 13  1  0
 12 14  1  0
 12 15  1  0
 11 16  2  0
  4 17  1  0
 17 18  1  0
 17 19  1  0
 19 20  1  0
 20 21  1  0
 21 22  2  0
 21 23  1  0
 23 24  1  0
 24 25  2  0
 25 26  1  0
 26 27  2  0
 27 28  1  0
 28 29  1  0
 28 30  1  0
 28 31  1  0
 27 32  1  0
 32 33  2  0
 20  2  1  0
 33 24  1  0
 16  5  1  0
M  END
>  <assay_chembl_id>  (73) 
CHEMBL863517

>  <assay_description>  (73) 
Inhibition of AR mediated transcriptional activation using reporter assay

>  <parent_molecule_chembl_id>  (73) 
CHEMBL202660

>  <canonical_smiles>  (73) 
CC1CN(c2ccc(C#N)c(C(F)(F)F)c2)C(C)CN1C(=O)Nc1ccc(C(F)(F)F)nc1

>  <standard_type>  (73) 
IC50

>  <standard_relation>  (73) 
=

>  <standard_value>  (73) 
210.0

>  <standard_units>  (73) 
nM

>  <target_pref_name>  (73) 
Androgen Receptor

>  <target_chembl_id>  (73) 
CHEMBL1871

>  <target_organism>  (73) 
Homo sapiens

>  <pchembl_median>  (73) 
6.21

$$$$
CHEMBL200973
     RDKit          2D

 31 33  0  0  0  0  0  0  0  0999 V2000
    3.0000    0.0000    0.0000 C   0  0  0  0  0  0  0  0  0  0  0  0
    1.5000    0.0000    0.0000 C   0  0  0  0  0  0  0  0  0  0  0  0
    0.7500   -1.2990    0.0000 C   0  0  0  0  0  0  0  0  0  0  0  0
   -0.7500   -1.2990    0.0000 N   0  0  0  0  0  0  0  0  0  0  0  0
   -1.5000   -2.5981    0.0000 C   0  0  0  0  0  0  0  0  0  0  0  0
   -3.0000   -2.5981    0.0000 O   0  0  0  0  0  0  0  0  0  0  0  0
   -0.7500   -3.8971    0.0000 N   0  0  0  0  0  0  0  0  0  0  0  0
   -1.5000   -5.1962    0.0000 C   0  0  0  0  0  0  0  0  0  0  0  0
   -3.0000   -5.1962    0.0000 C   0  0  0  0  0  0  0  0  0  0  0  0
   -3.7500   -6.4952    0.0000 C   0  0  0  0  0  0  0  0  0  0  0  0
   -3.0000   -7.7942    0.0000 C   0  0  0  0  0  0  0  0  0  0  0  0
   -3.7500   -9.0933    0.0000 C   0  0  0  0  0  0  0  0  0  0  0  0
   -4.5000  -10.3923    0.0000 N   0  0  0  0  0  0  0  0  0  0  0  0
   -1.5000   -7.7942    0.0000 N   0  0  0  0  0  0  0  0  0  0  0  0
   -0.7500   -6.4952    0.0000 C   0  0  0  0  0  0  0  0  0  0  0  0
   -1.5000    0.0000    0.0000 C   0  0  0  0  0  0  0  0  0  0  0  0
   -3.0000    0.0000    0.0000 C   0  0  0  0  0  0  0  0  0  0  0  0
   -0.7500    1.2990    0.0000 C   0  0  0  0  0  0  0  0  0  0  0  0
    0.7500    1.2990    0.0000 N   0  0  0  0  0  0  0  0  0  0  0  0
    1.5000    2.5981    0.0000 C   0  0  0  0  0  0  0  0  0  0  0  0
    3.0000    2.5981    0.0000 C   0  0  0  0  0  0  0  0  0  0  0  0
    3.7500    3.8971    0.0000 C   0  0  0  0  0  0  0  0  0  0  0  0
    3.0000    5.1962    0.0000 C   0  0  0  0  0  0  0  0  0  0  0  0
    3.7500    6.4952    0.0000 C   0  0  0  0  0  0  0  0  0  0  0  0
    4.5000    7.7942    0.0000 N   0  0  0  0  0  0  0  0  0  0  0  0
    1.5000    5.1962    0.0000 C   0  0  0  0  0  0  0  0  0  0  0  0
    0.7500    6.4952    0.0000 C   0  0  0  0  0  0  0  0  0  0  0  0
    0.0000    7.7942    0.0000 F   0  0  0  0  0  0  0  0  0  0  0  0
   -0.5490    5.7452    0.0000 F   0  0  0  0  0  0  0  0  0  0  0  0
    2.0490    7.2452    0.0000 F   0  0  0  0  0  0  0  0  0  0  0  0
    0.7500    3.8971    0.0000 C   0  0  0  0  0  0  0  0  0  0  0  0
  2  1  1  1
  2  3  1  0
  3  4  1  0
  4  5  1  0
  5  6  2  0
  5  7  1  0
  7  8  1  0
  8  9  2  0
  9 10  1  0
 10 11  2  0
 11 12  1  0
 12 13  3  0
 11 14  1  0
 14 15  2  0
  4 16  1  0
 16 17  1  6
 16 18  1  0
 18 19  1  0
 19 20  1  0
 20 21  2  0
 21 22  1  0
 22 23  2  0
 23 24  1  0
 24 25  3  0
 23 26  1  0
 26 27  1  0
 27 28  1  0
 27 29  1  0
 27 30  1  0
 26 31  2  0
 19  2  1  0
 31 20  1  0
 15  8  1  0
M  END
>  <assay_chembl_id>  (74) 
CHEMBL863517

>  <assay_description>  (74) 
Inhibition of AR mediated transcriptional activation using reporter assay

>  <parent_molecule_chembl_id>  (74) 
CHEMBL200973

>  <canonical_smiles>  (74) 
C[C@H]1CN(C(=O)Nc2ccc(C#N)nc2)[C@H](C)CN1c1ccc(C#N)c(C(F)(F)F)c1

>  <standard_type>  (74) 
IC50

>  <standard_relation>  (74) 
=

>  <standard_value>  (74) 
200.0

>  <standard_units>  (74) 
nM

>  <target_pref_name>  (74) 
Androgen Receptor

>  <target_chembl_id>  (74) 
CHEMBL1871

>  <target_organism>  (74) 
Homo sapiens

>  <pchembl_median>  (74) 
5.37

$$$$
CHEMBL381358
     RDKit          2D

 32 34  0  0  0  0  0  0  0  0999 V2000
    3.7500   -1.2990    0.0000 C   0  0  0  0  0  0  0  0  0  0  0  0
    3.0000    0.0000    0.0000 C   0  0  0  0  0  0  0  0  0  0  0  0
    3.7500    1.2990    0.0000 O   0  0  0  0  0  0  0  0  0  0  0  0
    1.5000    0.0000    0.0000 C   0  0  0  0  0  0  0  0  0  0  0  0
    0.7500   -1.2990    0.0000 C   0  0  0  0  0  0  0  0  0  0  0  0
   -0.7500   -1.2990    0.0000 C   0  0  0  0  0  0  0  0  0  0  0  0
   -1.5000    0.0000    0.0000 C   0  0  0  0  0  0  0  0  0  0  0  0
   -3.0000    0.0000    0.0000 N   0  0  0  0  0  0  0  0  0  0  0  0
   -3.7500    1.2990    0.0000 C   0  0  0  0  0  0  0  0  0  0  0  0
   -3.0000    2.5981    0.0000 O   0  0  0  0  0  0  0  0  0  0  0  0
   -5.2500    1.2990    0.0000 N   0  0  0  0  0  0  0  0  0  0  0  0
   -6.0000    2.5981    0.0000 C   0  0  0  0  0  0  0  0  0  0  0  0
   -7.5000    2.5981    0.0000 C   0  0  0  0  0  0  0  0  0  0  0  0
   -8.2500    3.8971    0.0000 C   0  0  0  0  0  0  0  0  0  0  0  0
   -8.2500    1.2990    0.0000 N   0  0  0  0  0  0  0  0  0  0  0  0
   -9.7500    1.2990    0.0000 C   0  0  0  0  0  0  0  0  0  0  0  0
  -10.5000    2.5981    0.0000 C   0  0  0  0  0  0  0  0  0  0  0  0
  -12.0000    2.5981    0.0000 C   0  0  0  0  0  0  0  0  0  0  0  0
  -12.7500    1.2990    0.0000 C   0  0  0  0  0  0  0  0  0  0  0  0
  -14.2500    1.2990    0.0000 C   0  0  0  0  0  0  0  0  0  0  0  0
  -15.7500    1.2990    0.0000 N   0  0  0  0  0  0  0  0  0  0  0  0
  -12.0000    0.0000    0.0000 C   0  0  0  0  0  0  0  0  0  0  0  0
  -12.7500   -1.2990    0.0000 C   0  0  0  0  0  0  0  0  0  0  0  0
  -13.5000   -2.5981    0.0000 F   0  0  0  0  0  0  0  0  0  0  0  0
  -11.4510   -2.0490    0.0000 F   0  0  0  0  0  0  0  0  0  0  0  0
  -14.0490   -0.5490    0.0000 F   0  0  0  0  0  0  0  0  0  0  0  0
  -10.5000    0.0000    0.0000 C   0  0  0  0  0  0  0  0  0  0  0  0
   -7.5000    0.0000    0.0000 C   0  0  0  0  0  0  0  0  0  0  0  0
   -6.0000    0.0000    0.0000 C   0  0  0  0  0  0  0  0  0  0  0  0
   -5.2500   -1.2990    0.0000 C   0  0  0  0  0  0  0  0  0  0  0  0
   -0.7500    1.2990    0.0000 C   0  0  0  0  0  0  0  0  0  0  0  0
    0.7500    1.2990    0.0000 N   0  0  0  0  0  0  0  0  0  0  0  0
  1  2  1  0
  2  3  2  0
  2  4  1  0
  4  5  2  0
  5  6  1  0
  6  7  2  0
  7  8  1  0
  8  9  1  0
  9 10  2  0
  9 11  1  0
 11 12  1  0
 12 13  1  0
 13 14  1  1
 13 15  1  0
 15 16  1  0
 16 17  2  0
 17 18  1  0
 18 19  2  0
 19 20  1  0
 20 21  3  0
 19 22  1  0
 22 23  1  0
 23 24  1  0
 23 25  1  0
 23 26  1  0
 22 27  2  0
 15 28  1  0
 28 29  1  0
 29 30  1  6
  7 31  1  0
 31 32  2  0
 32  4  1  0
 29 11  1  0
 27 16  1  0
M  END
>  <assay_chembl_id>  (75) 
CHEMBL863517

>  <assay_description>  (75) 
Inhibition of AR mediated transcriptional activation using reporter assay

>  <parent_molecule_chembl_id>  (75) 
CHEMBL381358

>  <canonical_smiles>  (75) 
CC(=O)c1ccc(NC(=O)N2C[C@H](C)N(c3ccc(C#N)c(C(F)(F)F)c3)C[C@H]2C)cn1

>  <standard_type>  (75) 
IC50

>  <standard_relation>  (75) 
=

>  <standard_value>  (75) 
500.0

>  <standard_units>  (75) 
nM

>  <target_pref_name>  (75) 
Androgen Receptor

>  <target_chembl_id>  (75) 
CHEMBL1871

>  <target_organism>  (75) 
Homo sapiens

>  <pchembl_median>  (75) 
6.515

$$$$
CHEMBL201327
     RDKit          2D

 33 35  0  0  0  0  0  0  0  0999 V2000
    5.2500   -1.2990    0.0000 C   0  0  0  0  0  0  0  0  0  0  0  0
    3.7500   -1.2990    0.0000 O   0  0  0  0  0  0  0  0  0  0  0  0
    3.0000    0.0000    0.0000 C   0  0  0  0  0  0  0  0  0  0  0  0
    3.7500    1.2990    0.0000 O   0  0  0  0  0  0  0  0  0  0  0  0
    1.5000    0.0000    0.0000 C   0  0  0  0  0  0  0  0  0  0  0  0
    0.7500   -1.2990    0.0000 C   0  0  0  0  0  0  0  0  0  0  0  0
   -0.7500   -1.2990    0.0000 C   0  0  0  0  0  0  0  0  0  0  0  0
   -1.5000    0.0000    0.0000 C   0  0  0  0  0  0  0  0  0  0  0  0
   -3.0000    0.0000    0.0000 N   0  0  0  0  0  0  0  0  0  0  0  0
   -3.7500    1.2990    0.0000 C   0  0  0  0  0  0  0  0  0  0  0  0
   -3.0000    2.5981    0.0000 O   0  0  0  0  0  0  0  0  0  0  0  0
   -5.2500    1.2990    0.0000 N   0  0  0  0  0  0  0  0  0  0  0  0
   -6.0000    2.5981    0.0000 C   0  0  0  0  0  0  0  0  0  0  0  0
   -7.5000    2.5981    0.0000 C   0  0  0  0  0  0  0  0  0  0  0  0
   -8.2500    3.8971    0.0000 C   0  0  0  0  0  0  0  0  0  0  0  0
   -8.2500    1.2990    0.0000 N   0  0  0  0  0  0  0  0  0  0  0  0
   -9.7500    1.2990    0.0000 C   0  0  0  0  0  0  0  0  0  0  0  0
  -10.5000    2.5981    0.0000 C   0  0  0  0  0  0  0  0  0  0  0  0
  -12.0000    2.5981    0.0000 C   0  0  0  0  0  0  0  0  0  0  0  0
  -12.7500    1.2990    0.0000 C   0  0  0  0  0  0  0  0  0  0  0  0
  -14.2500    1.2990    0.0000 C   0  0  0  0  0  0  0  0  0  0  0  0
  -15.7500    1.2990    0.0000 N   0  0  0  0  0  0  0  0  0  0  0  0
  -12.0000    0.0000    0.0000 C   0  0  0  0  0  0  0  0  0  0  0  0
  -12.7500   -1.2990    0.0000 C   0  0  0  0  0  0  0  0  0  0  0  0
  -13.5000   -2.5981    0.0000 F   0  0  0  0  0  0  0  0  0  0  0  0
  -11.4510   -2.0490    0.0000 F   0  0  0  0  0  0  0  0  0  0  0  0
  -14.0490   -0.5490    0.0000 F   0  0  0  0  0  0  0  0  0  0  0  0
  -10.5000    0.0000    0.0000 C   0  0  0  0  0  0  0  0  0  0  0  0
   -7.5000    0.0000    0.0000 C   0  0  0  0  0  0  0  0  0  0  0  0
   -6.0000    0.0000    0.0000 C   0  0  0  0  0  0  0  0  0  0  0  0
   -5.2500   -1.2990    0.0000 C   0  0  0  0  0  0  0  0  0  0  0  0
   -0.7500    1.2990    0.0000 C   0  0  0  0  0  0  0  0  0  0  0  0
    0.7500    1.2990    0.0000 N   0  0  0  0  0  0  0  0  0  0  0  0
  1  2  1  0
  2  3  1  0
  3  4  2  0
  3  5  1  0
  5  6  2  0
  6  7  1  0
  7  8  2  0
  8  9  1  0
  9 10  1  0
 10 11  2  0
 10 12  1  0
 12 13  1  0
 13 14  1  0
 14 15  1  1
 14 16  1  0
 16 17  1  0
 17 18  2  0
 18 19  1  0
 19 20  2  0
 20 21  1  0
 21 22  3  0
 20 23  1  0
 23 24  1  0
 24 25  1  0
 24 26  1  0
 24 27  1  0
 23 28  2  0
 16 29  1  0
 29 30  1  0
 30 31  1  6
  8 32  1  0
 32 33  2  0
 33  5  1  0
 30 12  1  0
 28 17  1  0
M  END
>  <assay_chembl_id>  (76) 
CHEMBL863517

>  <assay_description>  (76) 
Inhibition of AR mediated transcriptional activation using reporter assay

>  <parent_molecule_chembl_id>  (76) 
CHEMBL201327

>  <canonical_smiles>  (76) 
COC(=O)c1ccc(NC(=O)N2C[C@H](C)N(c3ccc(C#N)c(C(F)(F)F)c3)C[C@H]2C)cn1

>  <standard_type>  (76) 
IC50

>  <standard_relation>  (76) 
=

>  <standard_value>  (76) 
470.0

>  <standard_units>  (76) 
nM

>  <target_pref_name>  (76) 
Androgen Receptor

>  <target_chembl_id>  (76) 
CHEMBL1871

>  <target_organism>  (76) 
Homo sapiens

>  <pchembl_median>  (76) 
8.93

$$$$
CHEMBL202710
     RDKit          2D

 30 32  0  0  0  0  0  0  0  0999 V2000
    3.0000    0.0000    0.0000 C   0  0  0  0  0  0  0  0  0  0  0  0
    1.5000    0.0000    0.0000 C   0  0  0  0  0  0  0  0  0  0  0  0
    0.7500   -1.2990    0.0000 C   0  0  0  0  0  0  0  0  0  0  0  0
   -0.7500   -1.2990    0.0000 N   0  0  0  0  0  0  0  0  0  0  0  0
   -1.5000   -2.5981    0.0000 C   0  0  0  0  0  0  0  0  0  0  0  0
   -3.0000   -2.5981    0.0000 O   0  0  0  0  0  0  0  0  0  0  0  0
   -0.7500   -3.8971    0.0000 N   0  0  0  0  0  0  0  0  0  0  0  0
   -1.5000   -5.1962    0.0000 C   0  0  0  0  0  0  0  0  0  0  0  0
   -3.0000   -5.1962    0.0000 C   0  0  0  0  0  0  0  0  0  0  0  0
   -3.7500   -6.4952    0.0000 C   0  0  0  0  0  0  0  0  0  0  0  0
   -3.0000   -7.7942    0.0000 C   0  0  0  0  0  0  0  0  0  0  0  0
   -3.7500   -9.0933    0.0000 Cl  0  0  0  0  0  0  0  0  0  0  0  0
   -1.5000   -7.7942    0.0000 N   0  0  0  0  0  0  0  0  0  0  0  0
   -0.7500   -6.4952    0.0000 C   0  0  0  0  0  0  0  0  0  0  0  0
   -1.5000    0.0000    0.0000 C   0  0  0  0  0  0  0  0  0  0  0  0
   -3.0000    0.0000    0.0000 C   0  0  0  0  0  0  0  0  0  0  0  0
   -0.7500    1.2990    0.0000 C   0  0  0  0  0  0  0  0  0  0  0  0
    0.7500    1.2990    0.0000 N   0  0  0  0  0  0  0  0  0  0  0  0
    1.5000    2.5981    0.0000 C   0  0  0  0  0  0  0  0  0  0  0  0
    3.0000    2.5981    0.0000 C   0  0  0  0  0  0  0  0  0  0  0  0
    3.7500    3.8971    0.0000 C   0  0  0  0  0  0  0  0  0  0  0  0
    3.0000    5.1962    0.0000 C   0  0  0  0  0  0  0  0  0  0  0  0
    3.7500    6.4952    0.0000 C   0  0  0  0  0  0  0  0  0  0  0  0
    4.5000    7.7942    0.0000 N   0  0  0  0  0  0  0  0  0  0  0  0
    1.5000    5.1962    0.0000 C   0  0  0  0  0  0  0  0  0  0  0  0
    0.7500    6.4952    0.0000 C   0  0  0  0  0  0  0  0  0  0  0  0
    0.0000    7.7942    0.0000 F   0  0  0  0  0  0  0  0  0  0  0  0
   -0.5490    5.7452    0.0000 F   0  0  0  0  0  0  0  0  0  0  0  0
    2.0490    7.2452    0.0000 F   0  0  0  0  0  0  0  0  0  0  0  0
    0.7500    3.8971    0.0000 C   0  0  0  0  0  0  0  0  0  0  0  0
  2  1  1  1
  2  3  1  0
  3  4  1  0
  4  5  1  0
  5  6  2  0
  5  7  1  0
  7  8  1  0
  8  9  2  0
  9 10  1  0
 10 11  2  0
 11 12  1  0
 11 13  1  0
 13 14  2  0
  4 15  1  0
 15 16  1  6
 15 17  1  0
 17 18  1  0
 18 19  1  0
 19 20  2  0
 20 21  1  0
 21 22  2  0
 22 23  1  0
 23 24  3  0
 22 25  1  0
 25 26  1  0
 26 27  1  0
 26 28  1  0
 26 29  1  0
 25 30  2  0
 18  2  1  0
 30 19  1  0
 14  8  1  0
M  END
>  <assay_chembl_id>  (77) 
CHEMBL863517

>  <assay_description>  (77) 
Inhibition of AR mediated transcriptional activation using reporter assay

>  <parent_molecule_chembl_id>  (77) 
CHEMBL202710

>  <canonical_smiles>  (77) 
C[C@H]1CN(C(=O)Nc2ccc(Cl)nc2)[C@H](C)CN1c1ccc(C#N)c(C(F)(F)F)c1

>  <standard_type>  (77) 
IC50

>  <standard_relation>  (77) 
=

>  <standard_value>  (77) 
730.0

>  <standard_units>  (77) 
nM

>  <target_pref_name>  (77) 
Androgen Receptor

>  <target_chembl_id>  (77) 
CHEMBL1871

>  <target_organism>  (77) 
Homo sapiens

>  <pchembl_median>  (77) 
5.06

$$$$
CHEMBL379465
     RDKit          2D

 30 32  0  0  0  0  0  0  0  0999 V2000
    3.0000    0.0000    0.0000 C   0  0  0  0  0  0  0  0  0  0  0  0
    1.5000    0.0000    0.0000 C   0  0  0  0  0  0  0  0  0  0  0  0
    0.7500   -1.2990    0.0000 C   0  0  0  0  0  0  0  0  0  0  0  0
   -0.7500   -1.2990    0.0000 N   0  0  0  0  0  0  0  0  0  0  0  0
   -1.5000   -2.5981    0.0000 C   0  0  0  0  0  0  0  0  0  0  0  0
   -3.0000   -2.5981    0.0000 O   0  0  0  0  0  0  0  0  0  0  0  0
   -0.7500   -3.8971    0.0000 N   0  0  0  0  0  0  0  0  0  0  0  0
   -1.5000   -5.1962    0.0000 C   0  0  0  0  0  0  0  0  0  0  0  0
   -3.0000   -5.1962    0.0000 C   0  0  0  0  0  0  0  0  0  0  0  0
   -3.7500   -6.4952    0.0000 C   0  0  0  0  0  0  0  0  0  0  0  0
   -3.0000   -7.7942    0.0000 C   0  0  0  0  0  0  0  0  0  0  0  0
   -3.7500   -9.0933    0.0000 N   0  0  0  0  0  0  0  0  0  0  0  0
   -1.5000   -7.7942    0.0000 N   0  0  0  0  0  0  0  0  0  0  0  0
   -0.7500   -6.4952    0.0000 C   0  0  0  0  0  0  0  0  0  0  0  0
   -1.5000    0.0000    0.0000 C   0  0  0  0  0  0  0  0  0  0  0  0
   -3.0000    0.0000    0.0000 C   0  0  0  0  0  0  0  0  0  0  0  0
   -0.7500    1.2990    0.0000 C   0  0  0  0  0  0  0  0  0  0  0  0
    0.7500    1.2990    0.0000 N   0  0  0  0  0  0  0  0  0  0  0  0
    1.5000    2.5981    0.0000 C   0  0  0  0  0  0  0  0  0  0  0  0
    3.0000    2.5981    0.0000 C   0  0  0  0  0  0  0  0  0  0  0  0
    3.7500    3.8971    0.0000 C   0  0  0  0  0  0  0  0  0  0  0  0
    3.0000    5.1962    0.0000 C   0  0  0  0  0  0  0  0  0  0  0  0
    3.7500    6.4952    0.0000 C   0  0  0  0  0  0  0  0  0  0  0  0
    4.5000    7.7942    0.0000 N   0  0  0  0  0  0  0  0  0  0  0  0
    1.5000    5.1962    0.0000 C   0  0  0  0  0  0  0  0  0  0  0  0
    0.7500    6.4952    0.0000 C   0  0  0  0  0  0  0  0  0  0  0  0
    0.0000    7.7942    0.0000 F   0  0  0  0  0  0  0  0  0  0  0  0
   -0.5490    5.7452    0.0000 F   0  0  0  0  0  0  0  0  0  0  0  0
    2.0490    7.2452    0.0000 F   0  0  0  0  0  0  0  0  0  0  0  0
    0.7500    3.8971    0.0000 C   0  0  0  0  0  0  0  0  0  0  0  0
  2  1  1  1
  2  3  1  0
  3  4  1  0
  4  5  1  0
  5  6  2  0
  5  7  1  0
  7  8  1  0
  8  9  2  0
  9 10  1  0
 10 11  2  0
 11 12  1  0
 11 13  1  0
 13 14  2  0
  4 15  1  0
 15 16  1  6
 15 17  1  0
 17 18  1  0
 18 19  1  0
 19 20  2  0
 20 21  1  0
 21 22  2  0
 22 23  1  0
 23 24  3  0
 22 25  1  0
 25 26  1  0
 26 27  1  0
 26 28  1  0
 26 29  1  0
 25 30  2  0
 18  2  1  0
 30 19  1  0
 14  8  1  0
M  END
>  <assay_chembl_id>  (78) 
CHEMBL863517

>  <assay_description>  (78) 
Inhibition of AR mediated transcriptional activation using reporter assay

>  <parent_molecule_chembl_id>  (78) 
CHEMBL379465

>  <canonical_smiles>  (78) 
C[C@H]1CN(C(=O)Nc2ccc(N)nc2)[C@H](C)CN1c1ccc(C#N)c(C(F)(F)F)c1

>  <standard_type>  (78) 
IC50

>  <standard_relation>  (78) 
=

>  <standard_value>  (78) 
370.0

>  <standard_units>  (78) 
nM

>  <target_pref_name>  (78) 
Androgen Receptor

>  <target_chembl_id>  (78) 
CHEMBL1871

>  <target_organism>  (78) 
Homo sapiens

>  <pchembl_median>  (78) 
6.08

$$$$
CHEMBL201069
     RDKit          2D

 31 33  0  0  0  0  0  0  0  0999 V2000
    3.7500   -1.2990    0.0000 C   0  0  0  0  0  0  0  0  0  0  0  0
    3.0000    0.0000    0.0000 S   0  0  0  0  0  0  0  0  0  0  0  0
    1.5000    0.0000    0.0000 C   0  0  0  0  0  0  0  0  0  0  0  0
    0.7500   -1.2990    0.0000 C   0  0  0  0  0  0  0  0  0  0  0  0
   -0.7500   -1.2990    0.0000 C   0  0  0  0  0  0  0  0  0  0  0  0
   -1.5000    0.0000    0.0000 C   0  0  0  0  0  0  0  0  0  0  0  0
   -3.0000    0.0000    0.0000 N   0  0  0  0  0  0  0  0  0  0  0  0
   -3.7500    1.2990    0.0000 C   0  0  0  0  0  0  0  0  0  0  0  0
   -3.0000    2.5981    0.0000 O   0  0  0  0  0  0  0  0  0  0  0  0
   -5.2500    1.2990    0.0000 N   0  0  0  0  0  0  0  0  0  0  0  0
   -6.0000    2.5981    0.0000 C   0  0  0  0  0  0  0  0  0  0  0  0
   -7.5000    2.5981    0.0000 C   0  0  0  0  0  0  0  0  0  0  0  0
   -8.2500    3.8971    0.0000 C   0  0  0  0  0  0  0  0  0  0  0  0
   -8.2500    1.2990    0.0000 N   0  0  0  0  0  0  0  0  0  0  0  0
   -9.7500    1.2990    0.0000 C   0  0  0  0  0  0  0  0  0  0  0  0
  -10.5000    2.5981    0.0000 C   0  0  0  0  0  0  0  0  0  0  0  0
  -12.0000    2.5981    0.0000 C   0  0  0  0  0  0  0  0  0  0  0  0
  -12.7500    1.2990    0.0000 C   0  0  0  0  0  0  0  0  0  0  0  0
  -14.2500    1.2990    0.0000 C   0  0  0  0  0  0  0  0  0  0  0  0
  -15.7500    1.2990    0.0000 N   0  0  0  0  0  0  0  0  0  0  0  0
  -12.0000    0.0000    0.0000 C   0  0  0  0  0  0  0  0  0  0  0  0
  -12.7500   -1.2990    0.0000 C   0  0  0  0  0  0  0  0  0  0  0  0
  -13.5000   -2.5981    0.0000 F   0  0  0  0  0  0  0  0  0  0  0  0
  -11.4510   -2.0490    0.0000 F   0  0  0  0  0  0  0  0  0  0  0  0
  -14.0490   -0.5490    0.0000 F   0  0  0  0  0  0  0  0  0  0  0  0
  -10.5000    0.0000    0.0000 C   0  0  0  0  0  0  0  0  0  0  0  0
   -7.5000    0.0000    0.0000 C   0  0  0  0  0  0  0  0  0  0  0  0
   -6.0000    0.0000    0.0000 C   0  0  0  0  0  0  0  0  0  0  0  0
   -5.2500   -1.2990    0.0000 C   0  0  0  0  0  0  0  0  0  0  0  0
   -0.7500    1.2990    0.0000 C   0  0  0  0  0  0  0  0  0  0  0  0
    0.7500    1.2990    0.0000 N   0  0  0  0  0  0  0  0  0  0  0  0
  1  2  1  0
  2  3  1  0
  3  4  2  0
  4  5  1  0
  5  6  2  0
  6  7  1  0
  7  8  1  0
  8  9  2  0
  8 10  1  0
 10 11  1  0
 11 12  1  0
 12 13  1  1
 12 14  1  0
 14 15  1  0
 15 16  2  0
 16 17  1  0
 17 18  2  0
 18 19  1  0
 19 20  3  0
 18 21  1  0
 21 22  1  0
 22 23  1  0
 22 24  1  0
 22 25  1  0
 21 26  2  0
 14 27  1  0
 27 28  1  0
 28 29  1  6
  6 30  1  0
 30 31  2  0
 31  3  1  0
 28 10  1  0
 26 15  1  0
M  END
>  <assay_chembl_id>  (79) 
CHEMBL863517

>  <assay_description>  (79) 
Inhibition of AR mediated transcriptional activation using reporter assay

>  <parent_molecule_chembl_id>  (79) 
CHEMBL201069

>  <canonical_smiles>  (79) 
CSc1ccc(NC(=O)N2C[C@H](C)N(c3ccc(C#N)c(C(F)(F)F)c3)C[C@H]2C)cn1

>  <standard_type>  (79) 
IC50

>  <standard_relation>  (79) 
=

>  <standard_value>  (79) 
220.0

>  <standard_units>  (79) 
nM

>  <target_pref_name>  (79) 
Androgen Receptor

>  <target_chembl_id>  (79) 
CHEMBL1871

>  <target_organism>  (79) 
Homo sapiens

>  <pchembl_median>  (79) 
4.955

$$$$
CHEMBL381253
     RDKit          2D

 31 33  0  0  0  0  0  0  0  0999 V2000
    3.7500   -1.2990    0.0000 C   0  0  0  0  0  0  0  0  0  0  0  0
    3.0000    0.0000    0.0000 O   0  0  0  0  0  0  0  0  0  0  0  0
    1.5000    0.0000    0.0000 C   0  0  0  0  0  0  0  0  0  0  0  0
    0.7500   -1.2990    0.0000 C   0  0  0  0  0  0  0  0  0  0  0  0
   -0.7500   -1.2990    0.0000 C   0  0  0  0  0  0  0  0  0  0  0  0
   -1.5000    0.0000    0.0000 C   0  0  0  0  0  0  0  0  0  0  0  0
   -3.0000    0.0000    0.0000 N   0  0  0  0  0  0  0  0  0  0  0  0
   -3.7500    1.2990    0.0000 C   0  0  0  0  0  0  0  0  0  0  0  0
   -3.0000    2.5981    0.0000 O   0  0  0  0  0  0  0  0  0  0  0  0
   -5.2500    1.2990    0.0000 N   0  0  0  0  0  0  0  0  0  0  0  0
   -6.0000    2.5981    0.0000 C   0  0  0  0  0  0  0  0  0  0  0  0
   -7.5000    2.5981    0.0000 C   0  0  0  0  0  0  0  0  0  0  0  0
   -8.2500    3.8971    0.0000 C   0  0  0  0  0  0  0  0  0  0  0  0
   -8.2500    1.2990    0.0000 N   0  0  0  0  0  0  0  0  0  0  0  0
   -9.7500    1.2990    0.0000 C   0  0  0  0  0  0  0  0  0  0  0  0
  -10.5000    2.5981    0.0000 C   0  0  0  0  0  0  0  0  0  0  0  0
  -12.0000    2.5981    0.0000 C   0  0  0  0  0  0  0  0  0  0  0  0
  -12.7500    1.2990    0.0000 C   0  0  0  0  0  0  0  0  0  0  0  0
  -14.2500    1.2990    0.0000 C   0  0  0  0  0  0  0  0  0  0  0  0
  -15.7500    1.2990    0.0000 N   0  0  0  0  0  0  0  0  0  0  0  0
  -12.0000    0.0000    0.0000 C   0  0  0  0  0  0  0  0  0  0  0  0
  -12.7500   -1.2990    0.0000 C   0  0  0  0  0  0  0  0  0  0  0  0
  -13.5000   -2.5981    0.0000 F   0  0  0  0  0  0  0  0  0  0  0  0
  -11.4510   -2.0490    0.0000 F   0  0  0  0  0  0  0  0  0  0  0  0
  -14.0490   -0.5490    0.0000 F   0  0  0  0  0  0  0  0  0  0  0  0
  -10.5000    0.0000    0.0000 C   0  0  0  0  0  0  0  0  0  0  0  0
   -7.5000    0.0000    0.0000 C   0  0  0  0  0  0  0  0  0  0  0  0
   -6.0000    0.0000    0.0000 C   0  0  0  0  0  0  0  0  0  0  0  0
   -5.2500   -1.2990    0.0000 C   0  0  0  0  0  0  0  0  0  0  0  0
   -0.7500    1.2990    0.0000 C   0  0  0  0  0  0  0  0  0  0  0  0
    0.7500    1.2990    0.0000 N   0  0  0  0  0  0  0  0  0  0  0  0
  1  2  1  0
  2  3  1  0
  3  4  2  0
  4  5  1  0
  5  6  2  0
  6  7  1  0
  7  8  1  0
  8  9  2  0
  8 10  1  0
 10 11  1  0
 11 12  1  0
 12 13  1  1
 12 14  1  0
 14 15  1  0
 15 16  2  0
 16 17  1  0
 17 18  2  0
 18 19  1  0
 19 20  3  0
 18 21  1  0
 21 22  1  0
 22 23  1  0
 22 24  1  0
 22 25  1  0
 21 26  2  0
 14 27  1  0
 27 28  1  0
 28 29  1  6
  6 30  1  0
 30 31  2  0
 31  3  1  0
 28 10  1  0
 26 15  1  0
M  END
>  <assay_chembl_id>  (80) 
CHEMBL863517

>  <assay_description>  (80) 
Inhibition of AR mediated transcriptional activation using reporter assay

>  <parent_molecule_chembl_id>  (80) 
CHEMBL381253

>  <canonical_smiles>  (80) 
COc1ccc(NC(=O)N2C[C@H](C)N(c3ccc(C#N)c(C(F)(F)F)c3)C[C@H]2C)cn1

>  <standard_type>  (80) 
IC50

>  <standard_relation>  (80) 
=

>  <standard_value>  (80) 
170.0

>  <standard_units>  (80) 
nM

>  <target_pref_name>  (80) 
Androgen Receptor

>  <target_chembl_id>  (80) 
CHEMBL1871

>  <target_organism>  (80) 
Homo sapiens

>  <pchembl_median>  (80) 
8.42

$$$$
CHEMBL381558
     RDKit          2D

 31 33  0  0  0  0  0  0  0  0999 V2000
    3.7500   -1.2990    0.0000 C   0  0  0  0  0  0  0  0  0  0  0  0
    3.0000    0.0000    0.0000 O   0  0  0  0  0  0  0  0  0  0  0  0
    1.5000    0.0000    0.0000 C   0  0  0  0  0  0  0  0  0  0  0  0
    0.7500   -1.2990    0.0000 C   0  0  0  0  0  0  0  0  0  0  0  0
   -0.7500   -1.2990    0.0000 N   0  0  0  0  0  0  0  0  0  0  0  0
   -1.5000    0.0000    0.0000 C   0  0  0  0  0  0  0  0  0  0  0  0
   -0.7500    1.2990    0.0000 C   0  0  0  0  0  0  0  0  0  0  0  0
   -1.5000    2.5981    0.0000 N   0  0  0  0  0  0  0  0  0  0  0  0
   -0.7500    3.8971    0.0000 C   0  0  0  0  0  0  0  0  0  0  0  0
    0.7500    3.8971    0.0000 O   0  0  0  0  0  0  0  0  0  0  0  0
   -1.5000    5.1962    0.0000 N   0  0  0  0  0  0  0  0  0  0  0  0
   -0.7500    6.4952    0.0000 C   0  0  0  0  0  0  0  0  0  0  0  0
   -1.5000    7.7942    0.0000 C   0  0  0  0  0  0  0  0  0  0  0  0
   -0.7500    9.0933    0.0000 C   0  0  0  0  0  0  0  0  0  0  0  0
   -3.0000    7.7942    0.0000 N   0  0  0  0  0  0  0  0  0  0  0  0
   -3.7500    9.0933    0.0000 C   0  0  0  0  0  0  0  0  0  0  0  0
   -3.0000   10.3923    0.0000 C   0  0  0  0  0  0  0  0  0  0  0  0
   -3.7500   11.6913    0.0000 C   0  0  0  0  0  0  0  0  0  0  0  0
   -5.2500   11.6913    0.0000 C   0  0  0  0  0  0  0  0  0  0  0  0
   -6.0000   12.9904    0.0000 C   0  0  0  0  0  0  0  0  0  0  0  0
   -6.7500   14.2894    0.0000 N   0  0  0  0  0  0  0  0  0  0  0  0
   -6.0000   10.3923    0.0000 C   0  0  0  0  0  0  0  0  0  0  0  0
   -7.5000   10.3923    0.0000 C   0  0  0  0  0  0  0  0  0  0  0  0
   -9.0000   10.3923    0.0000 F   0  0  0  0  0  0  0  0  0  0  0  0
   -7.5000    8.8923    0.0000 F   0  0  0  0  0  0  0  0  0  0  0  0
   -7.5000   11.8923    0.0000 F   0  0  0  0  0  0  0  0  0  0  0  0
   -5.2500    9.0933    0.0000 C   0  0  0  0  0  0  0  0  0  0  0  0
   -3.7500    6.4952    0.0000 C   0  0  0  0  0  0  0  0  0  0  0  0
   -3.0000    5.1962    0.0000 C   0  0  0  0  0  0  0  0  0  0  0  0
   -3.7500    3.8971    0.0000 C   0  0  0  0  0  0  0  0  0  0  0  0
    0.7500    1.2990    0.0000 C   0  0  0  0  0  0  0  0  0  0  0  0
  1  2  1  0
  2  3  1  0
  3  4  2  0
  4  5  1  0
  5  6  2  0
  6  7  1  0
  7  8  1  0
  8  9  1  0
  9 10  2  0
  9 11  1  0
 11 12  1  0
 12 13  1  0
 13 14  1  1
 13 15  1  0
 15 16  1  0
 16 17  2  0
 17 18  1  0
 18 19  2  0
 19 20  1  0
 20 21  3  0
 19 22  1  0
 22 23  1  0
 23 24  1  0
 23 25  1  0
 23 26  1  0
 22 27  2  0
 15 28  1  0
 28 29  1  0
 29 30  1  6
  7 31  2  0
 31  3  1  0
 29 11  1  0
 27 16  1  0
M  END
>  <assay_chembl_id>  (81) 
CHEMBL863517

>  <assay_description>  (81) 
Inhibition of AR mediated transcriptional activation using reporter assay

>  <parent_molecule_chembl_id>  (81) 
CHEMBL381558

>  <canonical_smiles>  (81) 
COc1cncc(NC(=O)N2C[C@H](C)N(c3ccc(C#N)c(C(F)(F)F)c3)C[C@H]2C)c1

>  <standard_type>  (81) 
IC50

>  <standard_relation>  (81) 
=

>  <standard_value>  (81) 
440.0

>  <standard_units>  (81) 
nM

>  <target_pref_name>  (81) 
Androgen Receptor

>  <target_chembl_id>  (81) 
CHEMBL1871

>  <target_organism>  (81) 
Homo sapiens

>  <pchembl_median>  (81) 
4.88

$$$$
CHEMBL197648
     RDKit          2D

 31 33  0  0  0  0  0  0  0  0999 V2000
    3.7500   -1.2990    0.0000 C   0  0  0  0  0  0  0  0  0  0  0  0
    3.0000    0.0000    0.0000 O   0  0  0  0  0  0  0  0  0  0  0  0
    1.5000    0.0000    0.0000 C   0  0  0  0  0  0  0  0  0  0  0  0
    0.7500   -1.2990    0.0000 C   0  0  0  0  0  0  0  0  0  0  0  0
   -0.7500   -1.2990    0.0000 C   0  0  0  0  0  0  0  0  0  0  0  0
   -1.5000    0.0000    0.0000 N   0  0  0  0  0  0  0  0  0  0  0  0
   -0.7500    1.2990    0.0000 C   0  0  0  0  0  0  0  0  0  0  0  0
    0.7500    1.2990    0.0000 C   0  0  0  0  0  0  0  0  0  0  0  0
    1.5000    2.5981    0.0000 N   0  0  0  0  0  0  0  0  0  0  0  0
    3.0000    2.5981    0.0000 C   0  0  0  0  0  0  0  0  0  0  0  0
    3.7500    1.2990    0.0000 O   0  0  0  0  0  0  0  0  0  0  0  0
    3.7500    3.8971    0.0000 N   0  0  0  0  0  0  0  0  0  0  0  0
    5.2500    3.8971    0.0000 C   0  0  0  0  0  0  0  0  0  0  0  0
    6.0000    5.1962    0.0000 C   0  0  0  0  0  0  0  0  0  0  0  0
    7.5000    5.1962    0.0000 C   0  0  0  0  0  0  0  0  0  0  0  0
    5.2500    6.4952    0.0000 N   0  0  0  0  0  0  0  0  0  0  0  0
    6.0000    7.7942    0.0000 C   0  0  0  0  0  0  0  0  0  0  0  0
    7.5000    7.7942    0.0000 C   0  0  0  0  0  0  0  0  0  0  0  0
    8.2500    9.0933    0.0000 C   0  0  0  0  0  0  0  0  0  0  0  0
    7.5000   10.3923    0.0000 C   0  0  0  0  0  0  0  0  0  0  0  0
    8.2500   11.6913    0.0000 C   0  0  0  0  0  0  0  0  0  0  0  0
    9.0000   12.9904    0.0000 N   0  0  0  0  0  0  0  0  0  0  0  0
    6.0000   10.3923    0.0000 C   0  0  0  0  0  0  0  0  0  0  0  0
    5.2500   11.6913    0.0000 C   0  0  0  0  0  0  0  0  0  0  0  0
    4.5000   12.9904    0.0000 F   0  0  0  0  0  0  0  0  0  0  0  0
    3.9510   10.9413    0.0000 F   0  0  0  0  0  0  0  0  0  0  0  0
    6.5490   12.4413    0.0000 F   0  0  0  0  0  0  0  0  0  0  0  0
    5.2500    9.0933    0.0000 C   0  0  0  0  0  0  0  0  0  0  0  0
    3.7500    6.4952    0.0000 C   0  0  0  0  0  0  0  0  0  0  0  0
    3.0000    5.1962    0.0000 C   0  0  0  0  0  0  0  0  0  0  0  0
    1.5000    5.1962    0.0000 C   0  0  0  0  0  0  0  0  0  0  0  0
  1  2  1  0
  2  3  1  0
  3  4  2  0
  4  5  1  0
  5  6  2  0
  6  7  1  0
  7  8  2  0
  8  9  1  0
  9 10  1  0
 10 11  2  0
 10 12  1  0
 12 13  1  0
 13 14  1  0
 14 15  1  1
 14 16  1  0
 16 17  1  0
 17 18  2  0
 18 19  1  0
 19 20  2  0
 20 21  1  0
 21 22  3  0
 20 23  1  0
 23 24  1  0
 24 25  1  0
 24 26  1  0
 24 27  1  0
 23 28  2  0
 16 29  1  0
 29 30  1  0
 30 31  1  6
  8  3  1  0
 30 12  1  0
 28 17  1  0
M  END
>  <assay_chembl_id>  (82) 
CHEMBL863517

>  <assay_description>  (82) 
Inhibition of AR mediated transcriptional activation using reporter assay

>  <parent_molecule_chembl_id>  (82) 
CHEMBL197648

>  <canonical_smiles>  (82) 
COc1ccncc1NC(=O)N1C[C@H](C)N(c2ccc(C#N)c(C(F)(F)F)c2)C[C@H]1C

>  <standard_type>  (82) 
IC50

>  <standard_relation>  (82) 
=

>  <standard_value>  (82) 
1200.0

>  <standard_units>  (82) 
nM

>  <target_pref_name>  (82) 
Androgen Receptor

>  <target_chembl_id>  (82) 
CHEMBL1871

>  <target_organism>  (82) 
Homo sapiens

>  <pchembl_median>  (82) 
4.3

$$$$
CHEMBL201077
     RDKit          2D

 31 33  0  0  0  0  0  0  0  0999 V2000
    3.7500   -1.2990    0.0000 C   0  0  0  0  0  0  0  0  0  0  0  0
    3.0000    0.0000    0.0000 O   0  0  0  0  0  0  0  0  0  0  0  0
    1.5000    0.0000    0.0000 C   0  0  0  0  0  0  0  0  0  0  0  0
    0.7500   -1.2990    0.0000 N   0  0  0  0  0  0  0  0  0  0  0  0
   -0.7500   -1.2990    0.0000 C   0  0  0  0  0  0  0  0  0  0  0  0
   -1.5000    0.0000    0.0000 C   0  0  0  0  0  0  0  0  0  0  0  0
   -0.7500    1.2990    0.0000 C   0  0  0  0  0  0  0  0  0  0  0  0
    0.7500    1.2990    0.0000 C   0  0  0  0  0  0  0  0  0  0  0  0
    1.5000    2.5981    0.0000 N   0  0  0  0  0  0  0  0  0  0  0  0
    3.0000    2.5981    0.0000 C   0  0  0  0  0  0  0  0  0  0  0  0
    3.7500    1.2990    0.0000 O   0  0  0  0  0  0  0  0  0  0  0  0
    3.7500    3.8971    0.0000 N   0  0  0  0  0  0  0  0  0  0  0  0
    5.2500    3.8971    0.0000 C   0  0  0  0  0  0  0  0  0  0  0  0
    6.0000    5.1962    0.0000 C   0  0  0  0  0  0  0  0  0  0  0  0
    7.5000    5.1962    0.0000 C   0  0  0  0  0  0  0  0  0  0  0  0
    5.2500    6.4952    0.0000 N   0  0  0  0  0  0  0  0  0  0  0  0
    6.0000    7.7942    0.0000 C   0  0  0  0  0  0  0  0  0  0  0  0
    7.5000    7.7942    0.0000 C   0  0  0  0  0  0  0  0  0  0  0  0
    8.2500    9.0933    0.0000 C   0  0  0  0  0  0  0  0  0  0  0  0
    7.5000   10.3923    0.0000 C   0  0  0  0  0  0  0  0  0  0  0  0
    8.2500   11.6913    0.0000 C   0  0  0  0  0  0  0  0  0  0  0  0
    9.0000   12.9904    0.0000 N   0  0  0  0  0  0  0  0  0  0  0  0
    6.0000   10.3923    0.0000 C   0  0  0  0  0  0  0  0  0  0  0  0
    5.2500   11.6913    0.0000 C   0  0  0  0  0  0  0  0  0  0  0  0
    4.5000   12.9904    0.0000 F   0  0  0  0  0  0  0  0  0  0  0  0
    3.9510   10.9413    0.0000 F   0  0  0  0  0  0  0  0  0  0  0  0
    6.5490   12.4413    0.0000 F   0  0  0  0  0  0  0  0  0  0  0  0
    5.2500    9.0933    0.0000 C   0  0  0  0  0  0  0  0  0  0  0  0
    3.7500    6.4952    0.0000 C   0  0  0  0  0  0  0  0  0  0  0  0
    3.0000    5.1962    0.0000 C   0  0  0  0  0  0  0  0  0  0  0  0
    1.5000    5.1962    0.0000 C   0  0  0  0  0  0  0  0  0  0  0  0
  1  2  1  0
  2  3  1  0
  3  4  2  0
  4  5  1  0
  5  6  2  0
  6  7  1  0
  7  8  2  0
  8  9  1  0
  9 10  1  0
 10 11  2  0
 10 12  1  0
 12 13  1  0
 13 14  1  0
 14 15  1  1
 14 16  1  0
 16 17  1  0
 17 18  2  0
 18 19  1  0
 19 20  2  0
 20 21  1  0
 21 22  3  0
 20 23  1  0
 23 24  1  0
 24 25  1  0
 24 26  1  0
 24 27  1  0
 23 28  2  0
 16 29  1  0
 29 30  1  0
 30 31  1  6
  8  3  1  0
 30 12  1  0
 28 17  1  0
M  END
>  <assay_chembl_id>  (83) 
CHEMBL863517

>  <assay_description>  (83) 
Inhibition of AR mediated transcriptional activation using reporter assay

>  <parent_molecule_chembl_id>  (83) 
CHEMBL201077

>  <canonical_smiles>  (83) 
COc1ncccc1NC(=O)N1C[C@H](C)N(c2ccc(C#N)c(C(F)(F)F)c2)C[C@H]1C

>  <standard_type>  (83) 
IC50

>  <standard_relation>  (83) 
=

>  <standard_value>  (83) 
190.0

>  <standard_units>  (83) 
nM

>  <target_pref_name>  (83) 
Androgen Receptor

>  <target_chembl_id>  (83) 
CHEMBL1871

>  <target_organism>  (83) 
Homo sapiens

>  <pchembl_median>  (83) 
7.43

$$$$
CHEMBL201242
     RDKit          2D

 30 32  0  0  0  0  0  0  0  0999 V2000
    3.0000    0.0000    0.0000 C   0  0  0  0  0  0  0  0  0  0  0  0
    1.5000    0.0000    0.0000 C   0  0  0  0  0  0  0  0  0  0  0  0
    0.7500   -1.2990    0.0000 C   0  0  0  0  0  0  0  0  0  0  0  0
   -0.7500   -1.2990    0.0000 C   0  0  0  0  0  0  0  0  0  0  0  0
   -1.5000    0.0000    0.0000 C   0  0  0  0  0  0  0  0  0  0  0  0
   -3.0000    0.0000    0.0000 N   0  0  0  0  0  0  0  0  0  0  0  0
   -3.7500    1.2990    0.0000 C   0  0  0  0  0  0  0  0  0  0  0  0
   -3.0000    2.5981    0.0000 O   0  0  0  0  0  0  0  0  0  0  0  0
   -5.2500    1.2990    0.0000 N   0  0  0  0  0  0  0  0  0  0  0  0
   -6.0000    2.5981    0.0000 C   0  0  0  0  0  0  0  0  0  0  0  0
   -7.5000    2.5981    0.0000 C   0  0  0  0  0  0  0  0  0  0  0  0
   -8.2500    3.8971    0.0000 C   0  0  0  0  0  0  0  0  0  0  0  0
   -8.2500    1.2990    0.0000 N   0  0  0  0  0  0  0  0  0  0  0  0
   -9.7500    1.2990    0.0000 C   0  0  0  0  0  0  0  0  0  0  0  0
  -10.5000    2.5981    0.0000 C   0  0  0  0  0  0  0  0  0  0  0  0
  -12.0000    2.5981    0.0000 C   0  0  0  0  0  0  0  0  0  0  0  0
  -12.7500    1.2990    0.0000 C   0  0  0  0  0  0  0  0  0  0  0  0
  -14.2500    1.2990    0.0000 C   0  0  0  0  0  0  0  0  0  0  0  0
  -15.7500    1.2990    0.0000 N   0  0  0  0  0  0  0  0  0  0  0  0
  -12.0000    0.0000    0.0000 C   0  0  0  0  0  0  0  0  0  0  0  0
  -12.7500   -1.2990    0.0000 C   0  0  0  0  0  0  0  0  0  0  0  0
  -13.5000   -2.5981    0.0000 F   0  0  0  0  0  0  0  0  0  0  0  0
  -11.4510   -2.0490    0.0000 F   0  0  0  0  0  0  0  0  0  0  0  0
  -14.0490   -0.5490    0.0000 F   0  0  0  0  0  0  0  0  0  0  0  0
  -10.5000    0.0000    0.0000 C   0  0  0  0  0  0  0  0  0  0  0  0
   -7.5000    0.0000    0.0000 C   0  0  0  0  0  0  0  0  0  0  0  0
   -6.0000    0.0000    0.0000 C   0  0  0  0  0  0  0  0  0  0  0  0
   -5.2500   -1.2990    0.0000 C   0  0  0  0  0  0  0  0  0  0  0  0
   -0.7500    1.2990    0.0000 C   0  0  0  0  0  0  0  0  0  0  0  0
    0.7500    1.2990    0.0000 N   0  0  0  0  0  0  0  0  0  0  0  0
  1  2  1  0
  2  3  2  0
  3  4  1  0
  4  5  2  0
  5  6  1  0
  6  7  1  0
  7  8  2  0
  7  9  1  0
  9 10  1  0
 10 11  1  0
 11 12  1  1
 11 13  1  0
 13 14  1  0
 14 15  2  0
 15 16  1  0
 16 17  2  0
 17 18  1  0
 18 19  3  0
 17 20  1  0
 20 21  1  0
 21 22  1  0
 21 23  1  0
 21 24  1  0
 20 25  2  0
 13 26  1  0
 26 27  1  0
 27 28  1  6
  5 29  1  0
 29 30  2  0
 30  2  1  0
 27  9  1  0
 25 14  1  0
M  END
>  <assay_chembl_id>  (84) 
CHEMBL863517

>  <assay_description>  (84) 
Inhibition of AR mediated transcriptional activation using reporter assay

>  <parent_molecule_chembl_id>  (84) 
CHEMBL201242

>  <canonical_smiles>  (84) 
Cc1ccc(NC(=O)N2C[C@H](C)N(c3ccc(C#N)c(C(F)(F)F)c3)C[C@H]2C)cn1

>  <standard_type>  (84) 
IC50

>  <standard_relation>  (84) 
=

>  <standard_value>  (84) 
130.0

>  <standard_units>  (84) 
nM

>  <target_pref_name>  (84) 
Androgen Receptor

>  <target_chembl_id>  (84) 
CHEMBL1871

>  <target_organism>  (84) 
Homo sapiens

>  <pchembl_median>  (84) 
5.21

$$$$
CHEMBL381776
     RDKit          2D

 30 32  0  0  0  0  0  0  0  0999 V2000
    3.0000    0.0000    0.0000 C   0  0  0  0  0  0  0  0  0  0  0  0
    1.5000    0.0000    0.0000 C   0  0  0  0  0  0  0  0  0  0  0  0
    0.7500   -1.2990    0.0000 C   0  0  0  0  0  0  0  0  0  0  0  0
   -0.7500   -1.2990    0.0000 N   0  0  0  0  0  0  0  0  0  0  0  0
   -1.5000    0.0000    0.0000 C   0  0  0  0  0  0  0  0  0  0  0  0
   -0.7500    1.2990    0.0000 C   0  0  0  0  0  0  0  0  0  0  0  0
   -1.5000    2.5981    0.0000 N   0  0  0  0  0  0  0  0  0  0  0  0
   -0.7500    3.8971    0.0000 C   0  0  0  0  0  0  0  0  0  0  0  0
    0.7500    3.8971    0.0000 O   0  0  0  0  0  0  0  0  0  0  0  0
   -1.5000    5.1962    0.0000 N   0  0  0  0  0  0  0  0  0  0  0  0
   -0.7500    6.4952    0.0000 C   0  0  0  0  0  0  0  0  0  0  0  0
   -1.5000    7.7942    0.0000 C   0  0  0  0  0  0  0  0  0  0  0  0
   -0.7500    9.0933    0.0000 C   0  0  0  0  0  0  0  0  0  0  0  0
   -3.0000    7.7942    0.0000 N   0  0  0  0  0  0  0  0  0  0  0  0
   -3.7500    9.0933    0.0000 C   0  0  0  0  0  0  0  0  0  0  0  0
   -3.0000   10.3923    0.0000 C   0  0  0  0  0  0  0  0  0  0  0  0
   -3.7500   11.6913    0.0000 C   0  0  0  0  0  0  0  0  0  0  0  0
   -5.2500   11.6913    0.0000 C   0  0  0  0  0  0  0  0  0  0  0  0
   -6.0000   12.9904    0.0000 C   0  0  0  0  0  0  0  0  0  0  0  0
   -6.7500   14.2894    0.0000 N   0  0  0  0  0  0  0  0  0  0  0  0
   -6.0000   10.3923    0.0000 C   0  0  0  0  0  0  0  0  0  0  0  0
   -7.5000   10.3923    0.0000 C   0  0  0  0  0  0  0  0  0  0  0  0
   -9.0000   10.3923    0.0000 F   0  0  0  0  0  0  0  0  0  0  0  0
   -7.5000    8.8923    0.0000 F   0  0  0  0  0  0  0  0  0  0  0  0
   -7.5000   11.8923    0.0000 F   0  0  0  0  0  0  0  0  0  0  0  0
   -5.2500    9.0933    0.0000 C   0  0  0  0  0  0  0  0  0  0  0  0
   -3.7500    6.4952    0.0000 C   0  0  0  0  0  0  0  0  0  0  0  0
   -3.0000    5.1962    0.0000 C   0  0  0  0  0  0  0  0  0  0  0  0
   -3.7500    3.8971    0.0000 C   0  0  0  0  0  0  0  0  0  0  0  0
    0.7500    1.2990    0.0000 C   0  0  0  0  0  0  0  0  0  0  0  0
  1  2  1  0
  2  3  2  0
  3  4  1  0
  4  5  2  0
  5  6  1  0
  6  7  1  0
  7  8  1  0
  8  9  2  0
  8 10  1  0
 10 11  1  0
 11 12  1  0
 12 13  1  1
 12 14  1  0
 14 15  1  0
 15 16  2  0
 16 17  1  0
 17 18  2  0
 18 19  1  0
 19 20  3  0
 18 21  1  0
 21 22  1  0
 22 23  1  0
 22 24  1  0
 22 25  1  0
 21 26  2  0
 14 27  1  0
 27 28  1  0
 28 29  1  6
  6 30  2  0
 30  2  1  0
 28 10  1  0
 26 15  1  0
M  END
>  <assay_chembl_id>  (85) 
CHEMBL863517

>  <assay_description>  (85) 
Inhibition of AR mediated transcriptional activation using reporter assay

>  <parent_molecule_chembl_id>  (85) 
CHEMBL381776

>  <canonical_smiles>  (85) 
Cc1cncc(NC(=O)N2C[C@H](C)N(c3ccc(C#N)c(C(F)(F)F)c3)C[C@H]2C)c1

>  <standard_type>  (85) 
IC50

>  <standard_relation>  (85) 
=

>  <standard_value>  (85) 
250.0

>  <standard_units>  (85) 
nM

>  <target_pref_name>  (85) 
Androgen Receptor

>  <target_chembl_id>  (85) 
CHEMBL1871

>  <target_organism>  (85) 
Homo sapiens

>  <pchembl_median>  (85) 
6.39

$$$$
CHEMBL201757
     RDKit          2D

 30 32  0  0  0  0  0  0  0  0999 V2000
    3.0000    0.0000    0.0000 C   0  0  0  0  0  0  0  0  0  0  0  0
    1.5000    0.0000    0.0000 C   0  0  0  0  0  0  0  0  0  0  0  0
    0.7500   -1.2990    0.0000 C   0  0  0  0  0  0  0  0  0  0  0  0
   -0.7500   -1.2990    0.0000 C   0  0  0  0  0  0  0  0  0  0  0  0
   -1.5000    0.0000    0.0000 N   0  0  0  0  0  0  0  0  0  0  0  0
   -0.7500    1.2990    0.0000 C   0  0  0  0  0  0  0  0  0  0  0  0
    0.7500    1.2990    0.0000 C   0  0  0  0  0  0  0  0  0  0  0  0
    1.5000    2.5981    0.0000 N   0  0  0  0  0  0  0  0  0  0  0  0
    0.7500    3.8971    0.0000 C   0  0  0  0  0  0  0  0  0  0  0  0
   -0.7500    3.8971    0.0000 O   0  0  0  0  0  0  0  0  0  0  0  0
    1.5000    5.1962    0.0000 N   0  0  0  0  0  0  0  0  0  0  0  0
    3.0000    5.1962    0.0000 C   0  0  0  0  0  0  0  0  0  0  0  0
    3.7500    6.4952    0.0000 C   0  0  0  0  0  0  0  0  0  0  0  0
    5.2500    6.4952    0.0000 C   0  0  0  0  0  0  0  0  0  0  0  0
    3.0000    7.7942    0.0000 N   0  0  0  0  0  0  0  0  0  0  0  0
    3.7500    9.0933    0.0000 C   0  0  0  0  0  0  0  0  0  0  0  0
    5.2500    9.0933    0.0000 C   0  0  0  0  0  0  0  0  0  0  0  0
    6.0000   10.3923    0.0000 C   0  0  0  0  0  0  0  0  0  0  0  0
    5.2500   11.6913    0.0000 C   0  0  0  0  0  0  0  0  0  0  0  0
    6.0000   12.9904    0.0000 C   0  0  0  0  0  0  0  0  0  0  0  0
    6.7500   14.2894    0.0000 N   0  0  0  0  0  0  0  0  0  0  0  0
    3.7500   11.6913    0.0000 C   0  0  0  0  0  0  0  0  0  0  0  0
    3.0000   12.9904    0.0000 C   0  0  0  0  0  0  0  0  0  0  0  0
    2.2500   14.2894    0.0000 F   0  0  0  0  0  0  0  0  0  0  0  0
    1.7010   12.2404    0.0000 F   0  0  0  0  0  0  0  0  0  0  0  0
    4.2990   13.7404    0.0000 F   0  0  0  0  0  0  0  0  0  0  0  0
    3.0000   10.3923    0.0000 C   0  0  0  0  0  0  0  0  0  0  0  0
    1.5000    7.7942    0.0000 C   0  0  0  0  0  0  0  0  0  0  0  0
    0.7500    6.4952    0.0000 C   0  0  0  0  0  0  0  0  0  0  0  0
   -0.7500    6.4952    0.0000 C   0  0  0  0  0  0  0  0  0  0  0  0
  1  2  1  0
  2  3  2  0
  3  4  1  0
  4  5  2  0
  5  6  1  0
  6  7  2  0
  7  8  1  0
  8  9  1  0
  9 10  2  0
  9 11  1  0
 11 12  1  0
 12 13  1  0
 13 14  1  1
 13 15  1  0
 15 16  1  0
 16 17  2  0
 17 18  1  0
 18 19  2  0
 19 20  1  0
 20 21  3  0
 19 22  1  0
 22 23  1  0
 23 24  1  0
 23 25  1  0
 23 26  1  0
 22 27  2  0
 15 28  1  0
 28 29  1  0
 29 30  1  6
  7  2  1  0
 29 11  1  0
 27 16  1  0
M  END
>  <assay_chembl_id>  (86) 
CHEMBL863517

>  <assay_description>  (86) 
Inhibition of AR mediated transcriptional activation using reporter assay

>  <parent_molecule_chembl_id>  (86) 
CHEMBL201757

>  <canonical_smiles>  (86) 
Cc1ccncc1NC(=O)N1C[C@H](C)N(c2ccc(C#N)c(C(F)(F)F)c2)C[C@H]1C

>  <standard_type>  (86) 
IC50

>  <standard_relation>  (86) 
=

>  <standard_value>  (86) 
330.0

>  <standard_units>  (86) 
nM

>  <target_pref_name>  (86) 
Androgen Receptor

>  <target_chembl_id>  (86) 
CHEMBL1871

>  <target_organism>  (86) 
Homo sapiens

>  <pchembl_median>  (86) 
6.75

$$$$
CHEMBL199284
     RDKit          2D

 30 32  0  0  0  0  0  0  0  0999 V2000
    3.0000    0.0000    0.0000 C   0  0  0  0  0  0  0  0  0  0  0  0
    1.5000    0.0000    0.0000 C   0  0  0  0  0  0  0  0  0  0  0  0
    0.7500   -1.2990    0.0000 N   0  0  0  0  0  0  0  0  0  0  0  0
   -0.7500   -1.2990    0.0000 C   0  0  0  0  0  0  0  0  0  0  0  0
   -1.5000    0.0000    0.0000 C   0  0  0  0  0  0  0  0  0  0  0  0
   -0.7500    1.2990    0.0000 C   0  0  0  0  0  0  0  0  0  0  0  0
    0.7500    1.2990    0.0000 C   0  0  0  0  0  0  0  0  0  0  0  0
    1.5000    2.5981    0.0000 N   0  0  0  0  0  0  0  0  0  0  0  0
    3.0000    2.5981    0.0000 C   0  0  0  0  0  0  0  0  0  0  0  0
    3.7500    1.2990    0.0000 O   0  0  0  0  0  0  0  0  0  0  0  0
    3.7500    3.8971    0.0000 N   0  0  0  0  0  0  0  0  0  0  0  0
    5.2500    3.8971    0.0000 C   0  0  0  0  0  0  0  0  0  0  0  0
    6.0000    5.1962    0.0000 C   0  0  0  0  0  0  0  0  0  0  0  0
    7.5000    5.1962    0.0000 C   0  0  0  0  0  0  0  0  0  0  0  0
    5.2500    6.4952    0.0000 N   0  0  0  0  0  0  0  0  0  0  0  0
    6.0000    7.7942    0.0000 C   0  0  0  0  0  0  0  0  0  0  0  0
    7.5000    7.7942    0.0000 C   0  0  0  0  0  0  0  0  0  0  0  0
    8.2500    9.0933    0.0000 C   0  0  0  0  0  0  0  0  0  0  0  0
    7.5000   10.3923    0.0000 C   0  0  0  0  0  0  0  0  0  0  0  0
    8.2500   11.6913    0.0000 C   0  0  0  0  0  0  0  0  0  0  0  0
    9.0000   12.9904    0.0000 N   0  0  0  0  0  0  0  0  0  0  0  0
    6.0000   10.3923    0.0000 C   0  0  0  0  0  0  0  0  0  0  0  0
    5.2500   11.6913    0.0000 C   0  0  0  0  0  0  0  0  0  0  0  0
    4.5000   12.9904    0.0000 F   0  0  0  0  0  0  0  0  0  0  0  0
    3.9510   10.9413    0.0000 F   0  0  0  0  0  0  0  0  0  0  0  0
    6.5490   12.4413    0.0000 F   0  0  0  0  0  0  0  0  0  0  0  0
    5.2500    9.0933    0.0000 C   0  0  0  0  0  0  0  0  0  0  0  0
    3.7500    6.4952    0.0000 C   0  0  0  0  0  0  0  0  0  0  0  0
    3.0000    5.1962    0.0000 C   0  0  0  0  0  0  0  0  0  0  0  0
    1.5000    5.1962    0.0000 C   0  0  0  0  0  0  0  0  0  0  0  0
  1  2  1  0
  2  3  2  0
  3  4  1  0
  4  5  2  0
  5  6  1  0
  6  7  2  0
  7  8  1  0
  8  9  1  0
  9 10  2  0
  9 11  1  0
 11 12  1  0
 12 13  1  0
 13 14  1  1
 13 15  1  0
 15 16  1  0
 16 17  2  0
 17 18  1  0
 18 19  2  0
 19 20  1  0
 20 21  3  0
 19 22  1  0
 22 23  1  0
 23 24  1  0
 23 25  1  0
 23 26  1  0
 22 27  2  0
 15 28  1  0
 28 29  1  0
 29 30  1  6
  7  2  1  0
 29 11  1  0
 27 16  1  0
M  END
>  <assay_chembl_id>  (87) 
CHEMBL863517

>  <assay_description>  (87) 
Inhibition of AR mediated transcriptional activation using reporter assay

>  <parent_molecule_chembl_id>  (87) 
CHEMBL199284

>  <canonical_smiles>  (87) 
Cc1ncccc1NC(=O)N1C[C@H](C)N(c2ccc(C#N)c(C(F)(F)F)c2)C[C@H]1C

>  <standard_type>  (87) 
IC50

>  <standard_relation>  (87) 
=

>  <standard_value>  (87) 
680.0

>  <standard_units>  (87) 
nM

>  <target_pref_name>  (87) 
Androgen Receptor

>  <target_chembl_id>  (87) 
CHEMBL1871

>  <target_organism>  (87) 
Homo sapiens

>  <pchembl_median>  (87) 
6.7

$$$$
CHEMBL203423
     RDKit          2D

 29 31  0  0  0  0  0  0  0  0999 V2000
    3.0000    0.0000    0.0000 C   0  0  0  0  0  0  0  0  0  0  0  0
    1.5000    0.0000    0.0000 C   0  0  0  0  0  0  0  0  0  0  0  0
    0.7500   -1.2990    0.0000 C   0  0  0  0  0  0  0  0  0  0  0  0
   -0.7500   -1.2990    0.0000 N   0  0  0  0  0  0  0  0  0  0  0  0
   -1.5000   -2.5981    0.0000 C   0  0  0  0  0  0  0  0  0  0  0  0
   -3.0000   -2.5981    0.0000 O   0  0  0  0  0  0  0  0  0  0  0  0
   -0.7500   -3.8971    0.0000 N   0  0  0  0  0  0  0  0  0  0  0  0
   -1.5000   -5.1962    0.0000 C   0  0  0  0  0  0  0  0  0  0  0  0
   -3.0000   -5.1962    0.0000 C   0  0  0  0  0  0  0  0  0  0  0  0
   -3.7500   -6.4952    0.0000 N   0  0  0  0  0  0  0  0  0  0  0  0
   -3.0000   -7.7942    0.0000 C   0  0  0  0  0  0  0  0  0  0  0  0
   -1.5000   -7.7942    0.0000 N   0  0  0  0  0  0  0  0  0  0  0  0
   -0.7500   -6.4952    0.0000 C   0  0  0  0  0  0  0  0  0  0  0  0
   -1.5000    0.0000    0.0000 C   0  0  0  0  0  0  0  0  0  0  0  0
   -3.0000    0.0000    0.0000 C   0  0  0  0  0  0  0  0  0  0  0  0
   -0.7500    1.2990    0.0000 C   0  0  0  0  0  0  0  0  0  0  0  0
    0.7500    1.2990    0.0000 N   0  0  0  0  0  0  0  0  0  0  0  0
    1.5000    2.5981    0.0000 C   0  0  0  0  0  0  0  0  0  0  0  0
    3.0000    2.5981    0.0000 C   0  0  0  0  0  0  0  0  0  0  0  0
    3.7500    3.8971    0.0000 C   0  0  0  0  0  0  0  0  0  0  0  0
    3.0000    5.1962    0.0000 C   0  0  0  0  0  0  0  0  0  0  0  0
    3.7500    6.4952    0.0000 C   0  0  0  0  0  0  0  0  0  0  0  0
    4.5000    7.7942    0.0000 N   0  0  0  0  0  0  0  0  0  0  0  0
    1.5000    5.1962    0.0000 C   0  0  0  0  0  0  0  0  0  0  0  0
    0.7500    6.4952    0.0000 C   0  0  0  0  0  0  0  0  0  0  0  0
    0.0000    7.7942    0.0000 F   0  0  0  0  0  0  0  0  0  0  0  0
   -0.5490    5.7452    0.0000 F   0  0  0  0  0  0  0  0  0  0  0  0
    2.0490    7.2452    0.0000 F   0  0  0  0  0  0  0  0  0  0  0  0
    0.7500    3.8971    0.0000 C   0  0  0  0  0  0  0  0  0  0  0  0
  2  1  1  1
  2  3  1  0
  3  4  1  0
  4  5  1  0
  5  6  2  0
  5  7  1  0
  7  8  1  0
  8  9  2  0
  9 10  1  0
 10 11  2  0
 11 12  1  0
 12 13  2  0
  4 14  1  0
 14 15  1  6
 14 16  1  0
 16 17  1  0
 17 18  1  0
 18 19  2  0
 19 20  1  0
 20 21  2  0
 21 22  1  0
 22 23  3  0
 21 24  1  0
 24 25  1  0
 25 26  1  0
 25 27  1  0
 25 28  1  0
 24 29  2  0
 17  2  1  0
 29 18  1  0
 13  8  1  0
M  END
>  <assay_chembl_id>  (88) 
CHEMBL863517

>  <assay_description>  (88) 
Inhibition of AR mediated transcriptional activation using reporter assay

>  <parent_molecule_chembl_id>  (88) 
CHEMBL203423

>  <canonical_smiles>  (88) 
C[C@H]1CN(C(=O)Nc2cncnc2)[C@H](C)CN1c1ccc(C#N)c(C(F)(F)F)c1

>  <standard_type>  (88) 
IC50

>  <standard_relation>  (88) 
=

>  <standard_value>  (88) 
1000.0

>  <standard_units>  (88) 
nM

>  <target_pref_name>  (88) 
Androgen Receptor

>  <target_chembl_id>  (88) 
CHEMBL1871

>  <target_organism>  (88) 
Homo sapiens

>  <pchembl_median>  (88) 
6.17

$$$$
CHEMBL203085
     RDKit          2D

 29 31  0  0  0  0  0  0  0  0999 V2000
    3.0000    0.0000    0.0000 C   0  0  0  0  0  0  0  0  0  0  0  0
    1.5000    0.0000    0.0000 C   0  0  0  0  0  0  0  0  0  0  0  0
    0.7500   -1.2990    0.0000 C   0  0  0  0  0  0  0  0  0  0  0  0
   -0.7500   -1.2990    0.0000 N   0  0  0  0  0  0  0  0  0  0  0  0
   -1.5000   -2.5981    0.0000 C   0  0  0  0  0  0  0  0  0  0  0  0
   -3.0000   -2.5981    0.0000 O   0  0  0  0  0  0  0  0  0  0  0  0
   -0.7500   -3.8971    0.0000 N   0  0  0  0  0  0  0  0  0  0  0  0
   -1.5000   -5.1962    0.0000 C   0  0  0  0  0  0  0  0  0  0  0  0
   -3.0000   -5.1962    0.0000 C   0  0  0  0  0  0  0  0  0  0  0  0
   -3.7500   -6.4952    0.0000 C   0  0  0  0  0  0  0  0  0  0  0  0
   -3.0000   -7.7942    0.0000 N   0  0  0  0  0  0  0  0  0  0  0  0
   -1.5000   -7.7942    0.0000 C   0  0  0  0  0  0  0  0  0  0  0  0
   -0.7500   -6.4952    0.0000 N   0  0  0  0  0  0  0  0  0  0  0  0
   -1.5000    0.0000    0.0000 C   0  0  0  0  0  0  0  0  0  0  0  0
   -3.0000    0.0000    0.0000 C   0  0  0  0  0  0  0  0  0  0  0  0
   -0.7500    1.2990    0.0000 C   0  0  0  0  0  0  0  0  0  0  0  0
    0.7500    1.2990    0.0000 N   0  0  0  0  0  0  0  0  0  0  0  0
    1.5000    2.5981    0.0000 C   0  0  0  0  0  0  0  0  0  0  0  0
    3.0000    2.5981    0.0000 C   0  0  0  0  0  0  0  0  0  0  0  0
    3.7500    3.8971    0.0000 C   0  0  0  0  0  0  0  0  0  0  0  0
    3.0000    5.1962    0.0000 C   0  0  0  0  0  0  0  0  0  0  0  0
    3.7500    6.4952    0.0000 C   0  0  0  0  0  0  0  0  0  0  0  0
    4.5000    7.7942    0.0000 N   0  0  0  0  0  0  0  0  0  0  0  0
    1.5000    5.1962    0.0000 C   0  0  0  0  0  0  0  0  0  0  0  0
    0.7500    6.4952    0.0000 C   0  0  0  0  0  0  0  0  0  0  0  0
    0.0000    7.7942    0.0000 F   0  0  0  0  0  0  0  0  0  0  0  0
   -0.5490    5.7452    0.0000 F   0  0  0  0  0  0  0  0  0  0  0  0
    2.0490    7.2452    0.0000 F   0  0  0  0  0  0  0  0  0  0  0  0
    0.7500    3.8971    0.0000 C   0  0  0  0  0  0  0  0  0  0  0  0
  2  1  1  1
  2  3  1  0
  3  4  1  0
  4  5  1  0
  5  6  2  0
  5  7  1  0
  7  8  1  0
  8  9  2  0
  9 10  1  0
 10 11  2  0
 11 12  1  0
 12 13  2  0
  4 14  1  0
 14 15  1  6
 14 16  1  0
 16 17  1  0
 17 18  1  0
 18 19  2  0
 19 20  1  0
 20 21  2  0
 21 22  1  0
 22 23  3  0
 21 24  1  0
 24 25  1  0
 25 26  1  0
 25 27  1  0
 25 28  1  0
 24 29  2  0
 17  2  1  0
 29 18  1  0
 13  8  1  0
M  END
>  <assay_chembl_id>  (89) 
CHEMBL863517

>  <assay_description>  (89) 
Inhibition of AR mediated transcriptional activation using reporter assay

>  <parent_molecule_chembl_id>  (89) 
CHEMBL203085

>  <canonical_smiles>  (89) 
C[C@H]1CN(C(=O)Nc2ccncn2)[C@H](C)CN1c1ccc(C#N)c(C(F)(F)F)c1

>  <standard_type>  (89) 
IC50

>  <standard_relation>  (89) 
=

>  <standard_value>  (89) 
4600.0

>  <standard_units>  (89) 
nM

>  <target_pref_name>  (89) 
Androgen Receptor

>  <target_chembl_id>  (89) 
CHEMBL1871

>  <target_organism>  (89) 
Homo sapiens

>  <pchembl_median>  (89) 
7.17

$$$$
CHEMBL199899
     RDKit          2D

 29 31  0  0  0  0  0  0  0  0999 V2000
    3.0000    0.0000    0.0000 C   0  0  0  0  0  0  0  0  0  0  0  0
    1.5000    0.0000    0.0000 C   0  0  0  0  0  0  0  0  0  0  0  0
    0.7500   -1.2990    0.0000 C   0  0  0  0  0  0  0  0  0  0  0  0
   -0.7500   -1.2990    0.0000 N   0  0  0  0  0  0  0  0  0  0  0  0
   -1.5000   -2.5981    0.0000 C   0  0  0  0  0  0  0  0  0  0  0  0
   -3.0000   -2.5981    0.0000 O   0  0  0  0  0  0  0  0  0  0  0  0
   -0.7500   -3.8971    0.0000 N   0  0  0  0  0  0  0  0  0  0  0  0
   -1.5000   -5.1962    0.0000 C   0  0  0  0  0  0  0  0  0  0  0  0
   -3.0000   -5.1962    0.0000 C   0  0  0  0  0  0  0  0  0  0  0  0
   -3.7500   -6.4952    0.0000 C   0  0  0  0  0  0  0  0  0  0  0  0
   -3.0000   -7.7942    0.0000 N   0  0  0  0  0  0  0  0  0  0  0  0
   -1.5000   -7.7942    0.0000 C   0  0  0  0  0  0  0  0  0  0  0  0
   -0.7500   -6.4952    0.0000 C   0  0  0  0  0  0  0  0  0  0  0  0
   -1.5000    0.0000    0.0000 C   0  0  0  0  0  0  0  0  0  0  0  0
   -3.0000    0.0000    0.0000 C   0  0  0  0  0  0  0  0  0  0  0  0
   -0.7500    1.2990    0.0000 C   0  0  0  0  0  0  0  0  0  0  0  0
    0.7500    1.2990    0.0000 N   0  0  0  0  0  0  0  0  0  0  0  0
    1.5000    2.5981    0.0000 C   0  0  0  0  0  0  0  0  0  0  0  0
    3.0000    2.5981    0.0000 C   0  0  0  0  0  0  0  0  0  0  0  0
    3.7500    3.8971    0.0000 C   0  0  0  0  0  0  0  0  0  0  0  0
    3.0000    5.1962    0.0000 C   0  0  0  0  0  0  0  0  0  0  0  0
    3.7500    6.4952    0.0000 C   0  0  0  0  0  0  0  0  0  0  0  0
    4.5000    7.7942    0.0000 N   0  0  0  0  0  0  0  0  0  0  0  0
    1.5000    5.1962    0.0000 C   0  0  0  0  0  0  0  0  0  0  0  0
    0.7500    6.4952    0.0000 C   0  0  0  0  0  0  0  0  0  0  0  0
    0.0000    7.7942    0.0000 F   0  0  0  0  0  0  0  0  0  0  0  0
   -0.5490    5.7452    0.0000 F   0  0  0  0  0  0  0  0  0  0  0  0
    2.0490    7.2452    0.0000 F   0  0  0  0  0  0  0  0  0  0  0  0
    0.7500    3.8971    0.0000 C   0  0  0  0  0  0  0  0  0  0  0  0
  2  1  1  1
  2  3  1  0
  3  4  1  0
  4  5  1  0
  5  6  2  0
  5  7  1  0
  7  8  1  0
  8  9  2  0
  9 10  1  0
 10 11  2  0
 11 12  1  0
 12 13  2  0
  4 14  1  0
 14 15  1  6
 14 16  1  0
 16 17  1  0
 17 18  1  0
 18 19  2  0
 19 20  1  0
 20 21  2  0
 21 22  1  0
 22 23  3  0
 21 24  1  0
 24 25  1  0
 25 26  1  0
 25 27  1  0
 25 28  1  0
 24 29  2  0
 17  2  1  0
 29 18  1  0
 13  8  1  0
M  END
>  <assay_chembl_id>  (90) 
CHEMBL863517

>  <assay_description>  (90) 
Inhibition of AR mediated transcriptional activation using reporter assay

>  <parent_molecule_chembl_id>  (90) 
CHEMBL199899

>  <canonical_smiles>  (90) 
C[C@H]1CN(C(=O)Nc2ccncc2)[C@H](C)CN1c1ccc(C#N)c(C(F)(F)F)c1

>  <standard_type>  (90) 
IC50

>  <standard_relation>  (90) 
=

>  <standard_value>  (90) 
140.0

>  <standard_units>  (90) 
nM

>  <target_pref_name>  (90) 
Androgen Receptor

>  <target_chembl_id>  (90) 
CHEMBL1871

>  <target_organism>  (90) 
Homo sapiens

>  <pchembl_median>  (90) 
6.88

$$$$
CHEMBL439685
     RDKit          2D

 29 31  0  0  0  0  0  0  0  0999 V2000
    3.0000    0.0000    0.0000 C   0  0  0  0  0  0  0  0  0  0  0  0
    1.5000    0.0000    0.0000 C   0  0  0  0  0  0  0  0  0  0  0  0
    0.7500   -1.2990    0.0000 C   0  0  0  0  0  0  0  0  0  0  0  0
   -0.7500   -1.2990    0.0000 N   0  0  0  0  0  0  0  0  0  0  0  0
   -1.5000   -2.5981    0.0000 C   0  0  0  0  0  0  0  0  0  0  0  0
   -3.0000   -2.5981    0.0000 O   0  0  0  0  0  0  0  0  0  0  0  0
   -0.7500   -3.8971    0.0000 N   0  0  0  0  0  0  0  0  0  0  0  0
   -1.5000   -5.1962    0.0000 C   0  0  0  0  0  0  0  0  0  0  0  0
   -3.0000   -5.1962    0.0000 C   0  0  0  0  0  0  0  0  0  0  0  0
   -3.7500   -6.4952    0.0000 C   0  0  0  0  0  0  0  0  0  0  0  0
   -3.0000   -7.7942    0.0000 C   0  0  0  0  0  0  0  0  0  0  0  0
   -1.5000   -7.7942    0.0000 N   0  0  0  0  0  0  0  0  0  0  0  0
   -0.7500   -6.4952    0.0000 C   0  0  0  0  0  0  0  0  0  0  0  0
   -1.5000    0.0000    0.0000 C   0  0  0  0  0  0  0  0  0  0  0  0
   -3.0000    0.0000    0.0000 C   0  0  0  0  0  0  0  0  0  0  0  0
   -0.7500    1.2990    0.0000 C   0  0  0  0  0  0  0  0  0  0  0  0
    0.7500    1.2990    0.0000 N   0  0  0  0  0  0  0  0  0  0  0  0
    1.5000    2.5981    0.0000 C   0  0  0  0  0  0  0  0  0  0  0  0
    3.0000    2.5981    0.0000 C   0  0  0  0  0  0  0  0  0  0  0  0
    3.7500    3.8971    0.0000 C   0  0  0  0  0  0  0  0  0  0  0  0
    3.0000    5.1962    0.0000 C   0  0  0  0  0  0  0  0  0  0  0  0
    3.7500    6.4952    0.0000 C   0  0  0  0  0  0  0  0  0  0  0  0
    4.5000    7.7942    0.0000 N   0  0  0  0  0  0  0  0  0  0  0  0
    1.5000    5.1962    0.0000 C   0  0  0  0  0  0  0  0  0  0  0  0
    0.7500    6.4952    0.0000 C   0  0  0  0  0  0  0  0  0  0  0  0
    0.0000    7.7942    0.0000 F   0  0  0  0  0  0  0  0  0  0  0  0
   -0.5490    5.7452    0.0000 F   0  0  0  0  0  0  0  0  0  0  0  0
    2.0490    7.2452    0.0000 F   0  0  0  0  0  0  0  0  0  0  0  0
    0.7500    3.8971    0.0000 C   0  0  0  0  0  0  0  0  0  0  0  0
  2  1  1  1
  2  3  1  0
  3  4  1  0
  4  5  1  0
  5  6  2  0
  5  7  1  0
  7  8  1  0
  8  9  2  0
  9 10  1  0
 10 11  2  0
 11 12  1  0
 12 13  2  0
  4 14  1  0
 14 15  1  6
 14 16  1  0
 16 17  1  0
 17 18  1  0
 18 19  2  0
 19 20  1  0
 20 21  2  0
 21 22  1  0
 22 23  3  0
 21 24  1  0
 24 25  1  0
 25 26  1  0
 25 27  1  0
 25 28  1  0
 24 29  2  0
 17  2  1  0
 29 18  1  0
 13  8  1  0
M  END
>  <assay_chembl_id>  (91) 
CHEMBL863517

>  <assay_description>  (91) 
Inhibition of AR mediated transcriptional activation using reporter assay

>  <parent_molecule_chembl_id>  (91) 
CHEMBL439685

>  <canonical_smiles>  (91) 
C[C@H]1CN(C(=O)Nc2cccnc2)[C@H](C)CN1c1ccc(C#N)c(C(F)(F)F)c1

>  <standard_type>  (91) 
IC50

>  <standard_relation>  (91) 
=

>  <standard_value>  (91) 
120.0

>  <standard_units>  (91) 
nM

>  <target_pref_name>  (91) 
Androgen Receptor

>  <target_chembl_id>  (91) 
CHEMBL1871

>  <target_organism>  (91) 
Homo sapiens

>  <pchembl_median>  (91) 
6.58

$$$$
CHEMBL201167
     RDKit          2D

 29 31  0  0  0  0  0  0  0  0999 V2000
    3.0000    0.0000    0.0000 C   0  0  0  0  0  0  0  0  0  0  0  0
    1.5000    0.0000    0.0000 C   0  0  0  0  0  0  0  0  0  0  0  0
    0.7500   -1.2990    0.0000 C   0  0  0  0  0  0  0  0  0  0  0  0
   -0.7500   -1.2990    0.0000 N   0  0  0  0  0  0  0  0  0  0  0  0
   -1.5000   -2.5981    0.0000 C   0  0  0  0  0  0  0  0  0  0  0  0
   -3.0000   -2.5981    0.0000 O   0  0  0  0  0  0  0  0  0  0  0  0
   -0.7500   -3.8971    0.0000 N   0  0  0  0  0  0  0  0  0  0  0  0
   -1.5000   -5.1962    0.0000 C   0  0  0  0  0  0  0  0  0  0  0  0
   -3.0000   -5.1962    0.0000 C   0  0  0  0  0  0  0  0  0  0  0  0
   -3.7500   -6.4952    0.0000 C   0  0  0  0  0  0  0  0  0  0  0  0
   -3.0000   -7.7942    0.0000 C   0  0  0  0  0  0  0  0  0  0  0  0
   -1.5000   -7.7942    0.0000 C   0  0  0  0  0  0  0  0  0  0  0  0
   -0.7500   -6.4952    0.0000 N   0  0  0  0  0  0  0  0  0  0  0  0
   -1.5000    0.0000    0.0000 C   0  0  0  0  0  0  0  0  0  0  0  0
   -3.0000    0.0000    0.0000 C   0  0  0  0  0  0  0  0  0  0  0  0
   -0.7500    1.2990    0.0000 C   0  0  0  0  0  0  0  0  0  0  0  0
    0.7500    1.2990    0.0000 N   0  0  0  0  0  0  0  0  0  0  0  0
    1.5000    2.5981    0.0000 C   0  0  0  0  0  0  0  0  0  0  0  0
    3.0000    2.5981    0.0000 C   0  0  0  0  0  0  0  0  0  0  0  0
    3.7500    3.8971    0.0000 C   0  0  0  0  0  0  0  0  0  0  0  0
    3.0000    5.1962    0.0000 C   0  0  0  0  0  0  0  0  0  0  0  0
    3.7500    6.4952    0.0000 C   0  0  0  0  0  0  0  0  0  0  0  0
    4.5000    7.7942    0.0000 N   0  0  0  0  0  0  0  0  0  0  0  0
    1.5000    5.1962    0.0000 C   0  0  0  0  0  0  0  0  0  0  0  0
    0.7500    6.4952    0.0000 C   0  0  0  0  0  0  0  0  0  0  0  0
    0.0000    7.7942    0.0000 F   0  0  0  0  0  0  0  0  0  0  0  0
   -0.5490    5.7452    0.0000 F   0  0  0  0  0  0  0  0  0  0  0  0
    2.0490    7.2452    0.0000 F   0  0  0  0  0  0  0  0  0  0  0  0
    0.7500    3.8971    0.0000 C   0  0  0  0  0  0  0  0  0  0  0  0
  2  1  1  1
  2  3  1  0
  3  4  1  0
  4  5  1  0
  5  6  2  0
  5  7  1  0
  7  8  1  0
  8  9  2  0
  9 10  1  0
 10 11  2  0
 11 12  1  0
 12 13  2  0
  4 14  1  0
 14 15  1  6
 14 16  1  0
 16 17  1  0
 17 18  1  0
 18 19  2  0
 19 20  1  0
 20 21  2  0
 21 22  1  0
 22 23  3  0
 21 24  1  0
 24 25  1  0
 25 26  1  0
 25 27  1  0
 25 28  1  0
 24 29  2  0
 17  2  1  0
 29 18  1  0
 13  8  1  0
M  END
>  <assay_chembl_id>  (92) 
CHEMBL863517

>  <assay_description>  (92) 
Inhibition of AR mediated transcriptional activation using reporter assay

>  <parent_molecule_chembl_id>  (92) 
CHEMBL201167

>  <canonical_smiles>  (92) 
C[C@H]1CN(C(=O)Nc2ccccn2)[C@H](C)CN1c1ccc(C#N)c(C(F)(F)F)c1

>  <standard_type>  (92) 
IC50

>  <standard_relation>  (92) 
=

>  <standard_value>  (92) 
7800.0

>  <standard_units>  (92) 
nM

>  <target_pref_name>  (92) 
Androgen Receptor

>  <target_chembl_id>  (92) 
CHEMBL1871

>  <target_organism>  (92) 
Homo sapiens

>  <pchembl_median>  (92) 
6.63

$$$$
CHEMBL216949
     RDKit          2D

 24 25  0  0  0  0  0  0  0  0999 V2000
    7.5000   -2.5981    0.0000 C   0  0  0  0  0  0  0  0  0  0  0  0
    6.0000   -2.5981    0.0000 C   0  0  0  0  0  0  0  0  0  0  0  0
    5.2500   -1.2990    0.0000 C   0  0  0  0  0  0  0  0  0  0  0  0
    3.7500   -1.2990    0.0000 C   0  0  0  0  0  0  0  0  0  0  0  0
    3.0000    0.0000    0.0000 N   0  0  0  0  0  0  0  0  0  0  0  0
    3.7500    1.2990    0.0000 C   0  0  0  0  0  0  0  0  0  0  0  0
    5.2500    1.2990    0.0000 C   0  0  0  0  0  0  0  0  0  0  0  0
    6.0000    2.5981    0.0000 C   0  0  0  0  0  0  0  0  0  0  0  0
    7.5000    2.5981    0.0000 C   0  0  0  0  0  0  0  0  0  0  0  0
    1.5000    0.0000    0.0000 C   0  0  0  0  0  0  0  0  0  0  0  0
    0.7500   -1.2990    0.0000 C   0  0  0  0  0  0  0  0  0  0  0  0
   -0.7500   -1.2990    0.0000 C   0  0  0  0  0  0  0  0  0  0  0  0
   -1.5000    0.0000    0.0000 C   0  0  0  0  0  0  0  0  0  0  0  0
   -3.0000    0.0000    0.0000 N   0  0  0  0  0  0  0  0  0  0  0  0
   -3.7500    1.2990    0.0000 C   0  0  0  0  0  0  0  0  0  0  0  0
   -5.2500    1.2990    0.0000 O   0  0  0  0  0  0  0  0  0  0  0  0
   -3.0000    2.5981    0.0000 C   0  0  0  0  0  0  0  0  0  0  0  0
   -1.5000    2.5981    0.0000 C   0  0  0  0  0  0  0  0  0  0  0  0
   -0.7500    3.8971    0.0000 C   0  0  0  0  0  0  0  0  0  0  0  0
    0.0000    5.1962    0.0000 F   0  0  0  0  0  0  0  0  0  0  0  0
   -2.0490    4.6471    0.0000 F   0  0  0  0  0  0  0  0  0  0  0  0
    0.5490    3.1471    0.0000 F   0  0  0  0  0  0  0  0  0  0  0  0
   -0.7500    1.2990    0.0000 C   0  0  0  0  0  0  0  0  0  0  0  0
    0.7500    1.2990    0.0000 C   0  0  0  0  0  0  0  0  0  0  0  0
  1  2  1  0
  2  3  1  0
  3  4  1  0
  4  5  1  0
  5  6  1  0
  6  7  1  0
  7  8  1  0
  8  9  1  0
  5 10  1  0
 10 11  2  0
 11 12  1  0
 12 13  2  0
 13 14  1  0
 14 15  2  0
 15 16  1  0
 15 17  1  0
 17 18  2  0
 18 19  1  0
 19 20  1  0
 19 21  1  0
 19 22  1  0
 18 23  1  0
 23 24  2  0
 24 10  1  0
 23 13  1  0
M  END
>  <assay_chembl_id>  (93) 
CHEMBL911188

>  <assay_description>  (93) 
Antagonist activity against human androgen receptor in CV1 cells measured as inhibition of DHT-stimulated luciferase reporter gene activity by cotransfection assay

>  <parent_molecule_chembl_id>  (93) 
CHEMBL216949

>  <canonical_smiles>  (93) 
CCCCN(CCCC)c1ccc2nc(O)cc(C(F)(F)F)c2c1

>  <standard_type>  (93) 
IC50

>  <standard_relation>  (93) 
=

>  <standard_value>  (93) 
29.5

>  <standard_units>  (93) 
nM

>  <target_pref_name>  (93) 
Androgen Receptor

>  <target_chembl_id>  (93) 
CHEMBL1871

>  <target_organism>  (93) 
Homo sapiens

>  <pchembl_median>  (93) 
6.415

$$$$
CHEMBL217168
     RDKit          2D

 18 19  0  0  0  0  0  0  0  0999 V2000
    3.7500   -1.2990    0.0000 C   0  0  0  0  0  0  0  0  0  0  0  0
    3.0000    0.0000    0.0000 N   0  0  0  0  0  0  0  0  0  0  0  0
    3.7500    1.2990    0.0000 C   0  0  0  0  0  0  0  0  0  0  0  0
    1.5000    0.0000    0.0000 C   0  0  0  0  0  0  0  0  0  0  0  0
    0.7500   -1.2990    0.0000 C   0  0  0  0  0  0  0  0  0  0  0  0
   -0.7500   -1.2990    0.0000 C   0  0  0  0  0  0  0  0  0  0  0  0
   -1.5000    0.0000    0.0000 C   0  0  0  0  0  0  0  0  0  0  0  0
   -3.0000    0.0000    0.0000 N   0  0  0  0  0  0  0  0  0  0  0  0
   -3.7500    1.2990    0.0000 C   0  0  0  0  0  0  0  0  0  0  0  0
   -5.2500    1.2990    0.0000 O   0  0  0  0  0  0  0  0  0  0  0  0
   -3.0000    2.5981    0.0000 C   0  0  0  0  0  0  0  0  0  0  0  0
   -1.5000    2.5981    0.0000 C   0  0  0  0  0  0  0  0  0  0  0  0
   -0.7500    3.8971    0.0000 C   0  0  0  0  0  0  0  0  0  0  0  0
    0.0000    5.1962    0.0000 F   0  0  0  0  0  0  0  0  0  0  0  0
   -2.0490    4.6471    0.0000 F   0  0  0  0  0  0  0  0  0  0  0  0
    0.5490    3.1471    0.0000 F   0  0  0  0  0  0  0  0  0  0  0  0
   -0.7500    1.2990    0.0000 C   0  0  0  0  0  0  0  0  0  0  0  0
    0.7500    1.2990    0.0000 C   0  0  0  0  0  0  0  0  0  0  0  0
  1  2  1  0
  2  3  1  0
  2  4  1  0
  4  5  2  0
  5  6  1  0
  6  7  2  0
  7  8  1  0
  8  9  2  0
  9 10  1  0
  9 11  1  0
 11 12  2  0
 12 13  1  0
 13 14  1  0
 13 15  1  0
 13 16  1  0
 12 17  1  0
 17 18  2  0
 18  4  1  0
 17  7  1  0
M  END
>  <assay_chembl_id>  (94) 
CHEMBL911188

>  <assay_description>  (94) 
Antagonist activity against human androgen receptor in CV1 cells measured as inhibition of DHT-stimulated luciferase reporter gene activity by cotransfection assay

>  <parent_molecule_chembl_id>  (94) 
CHEMBL217168

>  <canonical_smiles>  (94) 
CN(C)c1ccc2nc(O)cc(C(F)(F)F)c2c1

>  <standard_type>  (94) 
IC50

>  <standard_relation>  (94) 
=

>  <standard_value>  (94) 
34.0

>  <standard_units>  (94) 
nM

>  <target_pref_name>  (94) 
Androgen Receptor

>  <target_chembl_id>  (94) 
CHEMBL1871

>  <target_organism>  (94) 
Homo sapiens

>  <pchembl_median>  (94) 
5.45

$$$$
CHEMBL217428
     RDKit          2D

 19 20  0  0  0  0  0  0  0  0999 V2000
    5.2500   -1.2990    0.0000 C   0  0  0  0  0  0  0  0  0  0  0  0
    3.7500   -1.2990    0.0000 C   0  0  0  0  0  0  0  0  0  0  0  0
    3.0000   -2.5981    0.0000 C   0  0  0  0  0  0  0  0  0  0  0  0
    3.0000    0.0000    0.0000 N   0  0  0  0  0  0  0  0  0  0  0  0
    1.5000    0.0000    0.0000 C   0  0  0  0  0  0  0  0  0  0  0  0
    0.7500   -1.2990    0.0000 C   0  0  0  0  0  0  0  0  0  0  0  0
   -0.7500   -1.2990    0.0000 C   0  0  0  0  0  0  0  0  0  0  0  0
   -1.5000    0.0000    0.0000 C   0  0  0  0  0  0  0  0  0  0  0  0
   -3.0000    0.0000    0.0000 N   0  0  0  0  0  0  0  0  0  0  0  0
   -3.7500    1.2990    0.0000 C   0  0  0  0  0  0  0  0  0  0  0  0
   -5.2500    1.2990    0.0000 O   0  0  0  0  0  0  0  0  0  0  0  0
   -3.0000    2.5981    0.0000 C   0  0  0  0  0  0  0  0  0  0  0  0
   -1.5000    2.5981    0.0000 C   0  0  0  0  0  0  0  0  0  0  0  0
   -0.7500    3.8971    0.0000 C   0  0  0  0  0  0  0  0  0  0  0  0
    0.0000    5.1962    0.0000 F   0  0  0  0  0  0  0  0  0  0  0  0
   -2.0490    4.6471    0.0000 F   0  0  0  0  0  0  0  0  0  0  0  0
    0.5490    3.1471    0.0000 F   0  0  0  0  0  0  0  0  0  0  0  0
   -0.7500    1.2990    0.0000 C   0  0  0  0  0  0  0  0  0  0  0  0
    0.7500    1.2990    0.0000 C   0  0  0  0  0  0  0  0  0  0  0  0
  1  2  1  0
  2  3  1  0
  2  4  1  0
  4  5  1  0
  5  6  2  0
  6  7  1  0
  7  8  2  0
  8  9  1  0
  9 10  2  0
 10 11  1  0
 10 12  1  0
 12 13  2  0
 13 14  1  0
 14 15  1  0
 14 16  1  0
 14 17  1  0
 13 18  1  0
 18 19  2  0
 19  5  1  0
 18  8  1  0
M  END
>  <assay_chembl_id>  (95) 
CHEMBL911188

>  <assay_description>  (95) 
Antagonist activity against human androgen receptor in CV1 cells measured as inhibition of DHT-stimulated luciferase reporter gene activity by cotransfection assay

>  <parent_molecule_chembl_id>  (95) 
CHEMBL217428

>  <canonical_smiles>  (95) 
CC(C)Nc1ccc2nc(O)cc(C(F)(F)F)c2c1

>  <standard_type>  (95) 
IC50

>  <standard_relation>  (95) 
=

>  <standard_value>  (95) 
16.5

>  <standard_units>  (95) 
nM

>  <target_pref_name>  (95) 
Androgen Receptor

>  <target_chembl_id>  (95) 
CHEMBL1871

>  <target_organism>  (95) 
Homo sapiens

>  <pchembl_median>  (95) 
5.31

$$$$
CHEMBL405835
     RDKit          2D

 19 20  0  0  0  0  0  0  0  0999 V2000
    6.0000   -2.5981    0.0000 C   0  0  0  0  0  0  0  0  0  0  0  0
    5.2500   -1.2990    0.0000 C   0  0  0  0  0  0  0  0  0  0  0  0
    3.7500   -1.2990    0.0000 C   0  0  0  0  0  0  0  0  0  0  0  0
    3.0000    0.0000    0.0000 N   0  0  0  0  0  0  0  0  0  0  0  0
    1.5000    0.0000    0.0000 C   0  0  0  0  0  0  0  0  0  0  0  0
    0.7500   -1.2990    0.0000 C   0  0  0  0  0  0  0  0  0  0  0  0
   -0.7500   -1.2990    0.0000 C   0  0  0  0  0  0  0  0  0  0  0  0
   -1.5000    0.0000    0.0000 C   0  0  0  0  0  0  0  0  0  0  0  0
   -3.0000    0.0000    0.0000 N   0  0  0  0  0  0  0  0  0  0  0  0
   -3.7500    1.2990    0.0000 C   0  0  0  0  0  0  0  0  0  0  0  0
   -5.2500    1.2990    0.0000 O   0  0  0  0  0  0  0  0  0  0  0  0
   -3.0000    2.5981    0.0000 C   0  0  0  0  0  0  0  0  0  0  0  0
   -1.5000    2.5981    0.0000 C   0  0  0  0  0  0  0  0  0  0  0  0
   -0.7500    3.8971    0.0000 C   0  0  0  0  0  0  0  0  0  0  0  0
    0.0000    5.1962    0.0000 F   0  0  0  0  0  0  0  0  0  0  0  0
   -2.0490    4.6471    0.0000 F   0  0  0  0  0  0  0  0  0  0  0  0
    0.5490    3.1471    0.0000 F   0  0  0  0  0  0  0  0  0  0  0  0
   -0.7500    1.2990    0.0000 C   0  0  0  0  0  0  0  0  0  0  0  0
    0.7500    1.2990    0.0000 C   0  0  0  0  0  0  0  0  0  0  0  0
  1  2  1  0
  2  3  1  0
  3  4  1  0
  4  5  1  0
  5  6  2  0
  6  7  1  0
  7  8  2  0
  8  9  1  0
  9 10  2  0
 10 11  1  0
 10 12  1  0
 12 13  2  0
 13 14  1  0
 14 15  1  0
 14 16  1  0
 14 17  1  0
 13 18  1  0
 18 19  2  0
 19  5  1  0
 18  8  1  0
M  END
>  <assay_chembl_id>  (96) 
CHEMBL911188

>  <assay_description>  (96) 
Antagonist activity against human androgen receptor in CV1 cells measured as inhibition of DHT-stimulated luciferase reporter gene activity by cotransfection assay

>  <parent_molecule_chembl_id>  (96) 
CHEMBL405835

>  <canonical_smiles>  (96) 
CCCNc1ccc2nc(O)cc(C(F)(F)F)c2c1

>  <standard_type>  (96) 
IC50

>  <standard_relation>  (96) 
=

>  <standard_value>  (96) 
27.5

>  <standard_units>  (96) 
nM

>  <target_pref_name>  (96) 
Androgen Receptor

>  <target_chembl_id>  (96) 
CHEMBL1871

>  <target_organism>  (96) 
Homo sapiens

>  <pchembl_median>  (96) 
7.47

$$$$
CHEMBL376182
     RDKit          2D

 34 37  0  0  0  0  0  0  0  0999 V2000
   12.0000  -10.3923    0.0000 C   0  0  0  0  0  0  0  0  0  0  0  0
   10.5000  -10.3923    0.0000 C   0  0  0  0  0  0  0  0  0  0  0  0
    9.7500   -9.0933    0.0000 N   0  0  0  0  0  0  0  0  0  0  0  0
   10.5000   -7.7942    0.0000 C   0  0  0  0  0  0  0  0  0  0  0  0
   12.0000   -7.7942    0.0000 C   0  0  0  0  0  0  0  0  0  0  0  0
    8.2500   -9.0933    0.0000 C   0  0  0  0  0  0  0  0  0  0  0  0
    7.5000  -10.3923    0.0000 O   0  0  0  0  0  0  0  0  0  0  0  0
    7.5000   -7.7942    0.0000 C   0  0  0  0  0  0  0  0  0  0  0  0
    6.0000   -7.7942    0.0000 C   0  0  0  0  0  0  0  0  0  0  0  0
    5.2500   -6.4952    0.0000 C   0  0  0  0  0  0  0  0  0  0  0  0
    3.7500   -6.4952    0.0000 C   0  0  0  0  0  0  0  0  0  0  0  0
    3.0000   -5.1962    0.0000 C   0  0  0  0  0  0  0  0  0  0  0  0
    1.5000   -5.1962    0.0000 C   0  0  0  0  0  0  0  0  0  0  0  0
    0.7500   -3.8971    0.0000 C   0  0  0  0  0  0  0  0  0  0  0  0
    1.5000   -2.5981    0.0000 C   0  0  0  0  0  0  0  0  0  0  0  0
    0.7500   -1.2990    0.0000 C   0  0  0  0  0  0  0  0  0  0  0  0
    1.5000    0.0000    0.0000 C   0  0  0  0  0  0  0  0  0  0  0  0
    0.7500    1.2990    0.0000 C   0  0  0  0  0  0  0  0  0  0  0  0
    1.5000    2.5981    0.0000 O   0  0  0  0  0  0  0  0  0  0  0  0
   -0.7500    1.2990    0.0000 C   0  0  0  0  0  0  0  0  0  0  0  0
   -1.5000    0.0000    0.0000 C   0  0  0  0  0  0  0  0  0  0  0  0
   -0.7500   -1.2990    0.0000 C   0  0  0  0  0  0  0  0  0  0  0  0
   -2.2500   -1.2990    0.0000 C   0  0  0  0  0  0  0  0  0  0  0  0
   -1.5000   -2.5981    0.0000 C   0  0  0  0  0  0  0  0  0  0  0  0
   -3.0000   -2.5981    0.0000 C   0  0  0  0  0  0  0  0  0  0  0  0
   -3.7500   -3.8971    0.0000 C   0  0  0  0  0  0  0  0  0  0  0  0
   -3.0000   -5.1962    0.0000 C   0  0  0  0  0  0  0  0  0  0  0  0
   -4.4918   -5.3529    0.0000 C   0  0  0  0  0  0  0  0  0  0  0  0
   -3.4635   -6.6227    0.0000 C   0  0  0  0  0  0  0  0  0  0  0  0
   -4.8901   -7.0863    0.0000 O   0  0  0  0  0  0  0  0  0  0  0  0
   -2.2500   -7.5044    0.0000 C   0  0  0  0  0  0  0  0  0  0  0  0
   -1.0365   -6.6227    0.0000 C   0  0  0  0  0  0  0  0  0  0  0  0
   -1.5000   -5.1962    0.0000 C   0  0  0  0  0  0  0  0  0  0  0  0
   -0.7500   -3.8971    0.0000 C   0  0  0  0  0  0  0  0  0  0  0  0
  1  2  1  0
  2  3  1  0
  3  4  1  0
  4  5  1  0
  3  6  1  0
  6  7  2  0
  6  8  1  0
  8  9  1  0
  9 10  1  0
 10 11  1  0
 11 12  1  0
 12 13  1  0
 13 14  1  0
 14 15  1  0
 16 15  1  6
 16 17  1  0
 17 18  1  0
 18 19  2  0
 18 20  1  0
 20 21  1  0
 21 22  1  0
 22 23  1  6
 22 24  1  0
 24 25  1  6
 25 26  1  0
 26 27  1  0
 27 28  1  6
 27 29  1  0
 29 30  1  6
 29 31  1  0
 31 32  1  0
 33 32  1  6
 33 34  1  0
 34 14  1  1
 22 16  1  0
 34 24  1  0
 33 27  1  0
M  END
>  <assay_chembl_id>  (97) 
CHEMBL914604

>  <assay_description>  (97) 
Displacement of [3H]mibolerone from androgen receptor expressed in CHOK1 cells

>  <parent_molecule_chembl_id>  (97) 
CHEMBL376182

>  <canonical_smiles>  (97) 
CCN(CC)C(=O)CCCCCCC1C[C@H]2CC(=O)CC[C@]2(C)[C@H]2CC[C@]3(C)[C@@H](O)CC[C@H]3[C@H]12

>  <standard_type>  (97) 
IC50

>  <standard_relation>  (97) 
=

>  <standard_value>  (97) 
330.0

>  <standard_units>  (97) 
nM

>  <target_pref_name>  (97) 
Androgen Receptor

>  <target_chembl_id>  (97) 
CHEMBL1871

>  <target_organism>  (97) 
Homo sapiens

>  <pchembl_median>  (97) 
6.55

$$$$
CHEMBL224736
     RDKit          2D

 38 41  0  0  0  0  0  0  0  0999 V2000
    2.2500   -1.2990    0.0000 C   0  0  0  0  0  0  0  0  0  0  0  0
    0.7500   -1.2990    0.0000 C   0  0  0  0  0  0  0  0  0  0  0  0
    1.5000    0.0000    0.0000 C   0  0  0  0  0  0  0  0  0  0  0  0
    0.7500    1.2990    0.0000 C   0  0  0  0  0  0  0  0  0  0  0  0
   -0.7500    1.2990    0.0000 C   0  0  0  0  0  0  0  0  0  0  0  0
   -1.5000    2.5981    0.0000 O   0  0  0  0  0  0  0  0  0  0  0  0
   -1.5000    0.0000    0.0000 C   0  0  0  0  0  0  0  0  0  0  0  0
   -0.7500   -1.2990    0.0000 C   0  0  0  0  0  0  0  0  0  0  0  0
   -1.5000   -2.5981    0.0000 C   0  0  0  0  0  0  0  0  0  0  0  0
   -0.7500   -3.8971    0.0000 C   0  0  0  0  0  0  0  0  0  0  0  0
   -1.5000   -5.1962    0.0000 C   0  0  0  0  0  0  0  0  0  0  0  0
   -3.0000   -5.1962    0.0000 C   0  0  0  0  0  0  0  0  0  0  0  0
   -3.7500   -6.4952    0.0000 C   0  0  0  0  0  0  0  0  0  0  0  0
   -5.2500   -6.4952    0.0000 C   0  0  0  0  0  0  0  0  0  0  0  0
   -6.0000   -7.7942    0.0000 C   0  0  0  0  0  0  0  0  0  0  0  0
   -7.5000   -7.7942    0.0000 S   0  0  0  0  0  3  0  0  0  0  0  0
   -8.2500   -6.4952    0.0000 O   0  0  0  0  0  1  0  0  0  0  0  0
   -8.2500   -9.0933    0.0000 C   0  0  0  0  0  0  0  0  0  0  0  0
   -9.7500   -9.0933    0.0000 C   0  0  0  0  0  0  0  0  0  0  0  0
  -10.5000  -10.3923    0.0000 C   0  0  0  0  0  0  0  0  0  0  0  0
  -12.0000  -10.3923    0.0000 C   0  0  0  0  0  0  0  0  0  0  0  0
  -12.0000  -11.8923    0.0000 F   0  0  0  0  0  0  0  0  0  0  0  0
  -12.0000   -8.8923    0.0000 F   0  0  0  0  0  0  0  0  0  0  0  0
  -13.5000  -10.3923    0.0000 C   0  0  0  0  0  0  0  0  0  0  0  0
  -15.0000  -10.3923    0.0000 F   0  0  0  0  0  0  0  0  0  0  0  0
  -13.5000   -8.8923    0.0000 F   0  0  0  0  0  0  0  0  0  0  0  0
  -13.5000  -11.8923    0.0000 F   0  0  0  0  0  0  0  0  0  0  0  0
    0.7500   -3.8971    0.0000 C   0  0  0  0  0  0  0  0  0  0  0  0
    1.5000   -2.5981    0.0000 C   0  0  0  0  0  0  0  0  0  0  0  0
    3.0000   -2.5981    0.0000 C   0  0  0  0  0  0  0  0  0  0  0  0
    3.7500   -3.8971    0.0000 C   0  0  0  0  0  0  0  0  0  0  0  0
    3.0000   -5.1962    0.0000 C   0  0  0  0  0  0  0  0  0  0  0  0
    4.4918   -5.3529    0.0000 C   0  0  0  0  0  0  0  0  0  0  0  0
    3.4635   -6.6227    0.0000 C   0  0  0  0  0  0  0  0  0  0  0  0
    4.8901   -7.0863    0.0000 O   0  0  0  0  0  0  0  0  0  0  0  0
    2.2500   -7.5044    0.0000 C   0  0  0  0  0  0  0  0  0  0  0  0
    1.0365   -6.6227    0.0000 C   0  0  0  0  0  0  0  0  0  0  0  0
    1.5000   -5.1962    0.0000 C   0  0  0  0  0  0  0  0  0  0  0  0
  2  1  1  1
  2  3  1  0
  3  4  1  0
  4  5  1  0
  5  6  2  0
  5  7  1  0
  7  8  1  0
  8  9  1  0
  9 10  1  0
 10 11  1  6
 11 12  1  0
 12 13  1  0
 13 14  1  0
 14 15  1  0
 15 16  1  0
 16 17  1  0
 16 18  1  0
 18 19  1  0
 19 20  1  0
 20 21  1  0
 21 22  1  0
 21 23  1  0
 21 24  1  0
 24 25  1  0
 24 26  1  0
 24 27  1  0
 28 10  1  6
 28 29  1  0
 29 30  1  1
 30 31  1  0
 31 32  1  0
 32 33  1  1
 32 34  1  0
 34 35  1  1
 34 36  1  0
 36 37  1  0
 38 37  1  1
  8  2  1  0
 38 28  1  0
 29  2  1  0
 38 32  1  0
M  CHG  2  16   1  17  -1
M  END
>  <assay_chembl_id>  (98) 
CHEMBL914604

>  <assay_description>  (98) 
Displacement of [3H]mibolerone from androgen receptor expressed in CHOK1 cells

>  <parent_molecule_chembl_id>  (98) 
CHEMBL224736

>  <canonical_smiles>  (98) 
C[C@]12CCC(=O)CC1C[C@@H](CCCCC[S+]([O-])CCCC(F)(F)C(F)(F)F)[C@@H]1[C@@H]2CC[C@]2(C)[C@@H](O)CC[C@@H]12

>  <standard_type>  (98) 
IC50

>  <standard_relation>  (98) 
=

>  <standard_value>  (98) 
6800.0

>  <standard_units>  (98) 
nM

>  <target_pref_name>  (98) 
Androgen Receptor

>  <target_chembl_id>  (98) 
CHEMBL1871

>  <target_organism>  (98) 
Homo sapiens

>  <pchembl_median>  (98) 
6.995

$$$$
CHEMBL225147
     RDKit          2D

 32 35  0  0  0  0  0  0  0  0999 V2000
   10.5000  -10.3923    0.0000 C   0  0  0  0  0  0  0  0  0  0  0  0
    9.7500   -9.0933    0.0000 N   0  0  0  0  0  0  0  0  0  0  0  0
   10.5000   -7.7942    0.0000 C   0  0  0  0  0  0  0  0  0  0  0  0
    8.2500   -9.0933    0.0000 C   0  0  0  0  0  0  0  0  0  0  0  0
    7.5000  -10.3923    0.0000 O   0  0  0  0  0  0  0  0  0  0  0  0
    7.5000   -7.7942    0.0000 C   0  0  0  0  0  0  0  0  0  0  0  0
    6.0000   -7.7942    0.0000 C   0  0  0  0  0  0  0  0  0  0  0  0
    5.2500   -6.4952    0.0000 C   0  0  0  0  0  0  0  0  0  0  0  0
    3.7500   -6.4952    0.0000 C   0  0  0  0  0  0  0  0  0  0  0  0
    3.0000   -5.1962    0.0000 C   0  0  0  0  0  0  0  0  0  0  0  0
    1.5000   -5.1962    0.0000 C   0  0  0  0  0  0  0  0  0  0  0  0
    0.7500   -3.8971    0.0000 C   0  0  0  0  0  0  0  0  0  0  0  0
    1.5000   -2.5981    0.0000 C   0  0  0  0  0  0  0  0  0  0  0  0
    0.7500   -1.2990    0.0000 C   0  0  0  0  0  0  0  0  0  0  0  0
    1.5000    0.0000    0.0000 C   0  0  0  0  0  0  0  0  0  0  0  0
    0.7500    1.2990    0.0000 C   0  0  0  0  0  0  0  0  0  0  0  0
    1.5000    2.5981    0.0000 O   0  0  0  0  0  0  0  0  0  0  0  0
   -0.7500    1.2990    0.0000 C   0  0  0  0  0  0  0  0  0  0  0  0
   -1.5000    0.0000    0.0000 C   0  0  0  0  0  0  0  0  0  0  0  0
   -0.7500   -1.2990    0.0000 C   0  0  0  0  0  0  0  0  0  0  0  0
   -2.2500   -1.2990    0.0000 C   0  0  0  0  0  0  0  0  0  0  0  0
   -1.5000   -2.5981    0.0000 C   0  0  0  0  0  0  0  0  0  0  0  0
   -3.0000   -2.5981    0.0000 C   0  0  0  0  0  0  0  0  0  0  0  0
   -3.7500   -3.8971    0.0000 C   0  0  0  0  0  0  0  0  0  0  0  0
   -3.0000   -5.1962    0.0000 C   0  0  0  0  0  0  0  0  0  0  0  0
   -4.4918   -5.3529    0.0000 C   0  0  0  0  0  0  0  0  0  0  0  0
   -3.4635   -6.6227    0.0000 C   0  0  0  0  0  0  0  0  0  0  0  0
   -4.8901   -7.0863    0.0000 O   0  0  0  0  0  0  0  0  0  0  0  0
   -2.2500   -7.5044    0.0000 C   0  0  0  0  0  0  0  0  0  0  0  0
   -1.0365   -6.6227    0.0000 C   0  0  0  0  0  0  0  0  0  0  0  0
   -1.5000   -5.1962    0.0000 C   0  0  0  0  0  0  0  0  0  0  0  0
   -0.7500   -3.8971    0.0000 C   0  0  0  0  0  0  0  0  0  0  0  0
  1  2  1  0
  2  3  1  0
  2  4  1  0
  4  5  2  0
  4  6  1  0
  6  7  1  0
  7  8  1  0
  8  9  1  0
  9 10  1  0
 10 11  1  0
 11 12  1  0
 12 13  1  0
 14 13  1  6
 14 15  1  0
 15 16  1  0
 16 17  2  0
 16 18  1  0
 18 19  1  0
 19 20  1  0
 20 21  1  6
 20 22  1  0
 22 23  1  6
 23 24  1  0
 24 25  1  0
 25 26  1  6
 25 27  1  0
 27 28  1  6
 27 29  1  0
 29 30  1  0
 31 30  1  6
 31 32  1  0
 32 12  1  1
 20 14  1  0
 32 22  1  0
 31 25  1  0
M  END
>  <assay_chembl_id>  (99) 
CHEMBL914604

>  <assay_description>  (99) 
Displacement of [3H]mibolerone from androgen receptor expressed in CHOK1 cells

>  <parent_molecule_chembl_id>  (99) 
CHEMBL225147

>  <canonical_smiles>  (99) 
CN(C)C(=O)CCCCCCC1C[C@H]2CC(=O)CC[C@]2(C)[C@H]2CC[C@]3(C)[C@@H](O)CC[C@H]3[C@H]12

>  <standard_type>  (99) 
IC50

>  <standard_relation>  (99) 
=

>  <standard_value>  (99) 
110.0

>  <standard_units>  (99) 
nM

>  <target_pref_name>  (99) 
Androgen Receptor

>  <target_chembl_id>  (99) 
CHEMBL1871

>  <target_organism>  (99) 
Homo sapiens

>  <pchembl_median>  (99) 
7.265

$$$$
CHEMBL224047
     RDKit          2D

 37 40  0  0  0  0  0  0  0  0999 V2000
   17.2500  -14.2894    0.0000 C   0  0  0  0  0  0  0  0  0  0  0  0
   16.5000  -12.9904    0.0000 C   0  0  0  0  0  0  0  0  0  0  0  0
   15.0000  -12.9904    0.0000 C   0  0  0  0  0  0  0  0  0  0  0  0
   14.2500  -11.6913    0.0000 C   0  0  0  0  0  0  0  0  0  0  0  0
   12.7500  -11.6913    0.0000 C   0  0  0  0  0  0  0  0  0  0  0  0
   12.0000  -10.3923    0.0000 C   0  0  0  0  0  0  0  0  0  0  0  0
   10.5000  -10.3923    0.0000 N   0  0  0  0  0  0  0  0  0  0  0  0
    9.7500   -9.0933    0.0000 C   0  0  0  0  0  0  0  0  0  0  0  0
   10.5000   -7.7942    0.0000 O   0  0  0  0  0  0  0  0  0  0  0  0
    8.2500   -9.0933    0.0000 C   0  0  0  0  0  0  0  0  0  0  0  0
    7.5000   -7.7942    0.0000 C   0  0  0  0  0  0  0  0  0  0  0  0
    6.0000   -7.7942    0.0000 C   0  0  0  0  0  0  0  0  0  0  0  0
    5.2500   -6.4952    0.0000 C   0  0  0  0  0  0  0  0  0  0  0  0
    3.7500   -6.4952    0.0000 C   0  0  0  0  0  0  0  0  0  0  0  0
    3.0000   -5.1962    0.0000 C   0  0  0  0  0  0  0  0  0  0  0  0
    1.5000   -5.1962    0.0000 C   0  0  0  0  0  0  0  0  0  0  0  0
    0.7500   -3.8971    0.0000 C   0  0  0  0  0  0  0  0  0  0  0  0
    1.5000   -2.5981    0.0000 C   0  0  0  0  0  0  0  0  0  0  0  0
    0.7500   -1.2990    0.0000 C   0  0  0  0  0  0  0  0  0  0  0  0
    1.5000    0.0000    0.0000 C   0  0  0  0  0  0  0  0  0  0  0  0
    0.7500    1.2990    0.0000 C   0  0  0  0  0  0  0  0  0  0  0  0
    1.5000    2.5981    0.0000 O   0  0  0  0  0  0  0  0  0  0  0  0
   -0.7500    1.2990    0.0000 C   0  0  0  0  0  0  0  0  0  0  0  0
   -1.5000    0.0000    0.0000 C   0  0  0  0  0  0  0  0  0  0  0  0
   -0.7500   -1.2990    0.0000 C   0  0  0  0  0  0  0  0  0  0  0  0
   -2.2500   -1.2990    0.0000 C   0  0  0  0  0  0  0  0  0  0  0  0
   -1.5000   -2.5981    0.0000 C   0  0  0  0  0  0  0  0  0  0  0  0
   -3.0000   -2.5981    0.0000 C   0  0  0  0  0  0  0  0  0  0  0  0
   -3.7500   -3.8971    0.0000 C   0  0  0  0  0  0  0  0  0  0  0  0
   -3.0000   -5.1962    0.0000 C   0  0  0  0  0  0  0  0  0  0  0  0
   -4.4918   -5.3529    0.0000 C   0  0  0  0  0  0  0  0  0  0  0  0
   -3.4635   -6.6227    0.0000 C   0  0  0  0  0  0  0  0  0  0  0  0
   -4.8901   -7.0863    0.0000 O   0  0  0  0  0  0  0  0  0  0  0  0
   -2.2500   -7.5044    0.0000 C   0  0  0  0  0  0  0  0  0  0  0  0
   -1.0365   -6.6227    0.0000 C   0  0  0  0  0  0  0  0  0  0  0  0
   -1.5000   -5.1962    0.0000 C   0  0  0  0  0  0  0  0  0  0  0  0
   -0.7500   -3.8971    0.0000 C   0  0  0  0  0  0  0  0  0  0  0  0
  1  2  1  0
  2  3  1  0
  3  4  1  0
  4  5  1  0
  5  6  1  0
  6  7  1  0
  7  8  1  0
  8  9  2  0
  8 10  1  0
 10 11  1  0
 11 12  1  0
 12 13  1  0
 13 14  1  0
 14 15  1  0
 15 16  1  0
 16 17  1  0
 17 18  1  0
 19 18  1  6
 19 20  1  0
 20 21  1  0
 21 22  2  0
 21 23  1  0
 23 24  1  0
 24 25  1  0
 25 26  1  6
 25 27  1  0
 27 28  1  6
 28 29  1  0
 29 30  1  0
 30 31  1  6
 30 32  1  0
 32 33  1  6
 32 34  1  0
 34 35  1  0
 36 35  1  6
 36 37  1  0
 37 17  1  1
 25 19  1  0
 37 27  1  0
 36 30  1  0
M  END
>  <assay_chembl_id>  (100) 
CHEMBL914604

>  <assay_description>  (100) 
Displacement of [3H]mibolerone from androgen receptor expressed in CHOK1 cells

>  <parent_molecule_chembl_id>  (100) 
CHEMBL224047

>  <canonical_smiles>  (100) 
CCCCCCNC(=O)CCCCCCCC1C[C@H]2CC(=O)CC[C@]2(C)[C@H]2CC[C@]3(C)[C@@H](O)CC[C@H]3[C@H]12

>  <standard_type>  (100) 
IC50

>  <standard_relation>  (100) 
=

>  <standard_value>  (100) 
2100.0

>  <standard_units>  (100) 
nM

>  <target_pref_name>  (100) 
Androgen Receptor

>  <target_chembl_id>  (100) 
CHEMBL1871

>  <target_organism>  (100) 
Homo sapiens

>  <pchembl_median>  (100) 
6.77

$$$$
CHEMBL224734
     RDKit          2D

 34 37  0  0  0  0  0  0  0  0999 V2000
   14.2500  -11.6913    0.0000 C   0  0  0  0  0  0  0  0  0  0  0  0
   12.7500  -11.6913    0.0000 C   0  0  0  0  0  0  0  0  0  0  0  0
   12.0000  -10.3923    0.0000 C   0  0  0  0  0  0  0  0  0  0  0  0
   10.5000  -10.3923    0.0000 N   0  0  0  0  0  0  0  0  0  0  0  0
    9.7500   -9.0933    0.0000 C   0  0  0  0  0  0  0  0  0  0  0  0
   10.5000   -7.7942    0.0000 O   0  0  0  0  0  0  0  0  0  0  0  0
    8.2500   -9.0933    0.0000 C   0  0  0  0  0  0  0  0  0  0  0  0
    7.5000   -7.7942    0.0000 C   0  0  0  0  0  0  0  0  0  0  0  0
    6.0000   -7.7942    0.0000 C   0  0  0  0  0  0  0  0  0  0  0  0
    5.2500   -6.4952    0.0000 C   0  0  0  0  0  0  0  0  0  0  0  0
    3.7500   -6.4952    0.0000 C   0  0  0  0  0  0  0  0  0  0  0  0
    3.0000   -5.1962    0.0000 C   0  0  0  0  0  0  0  0  0  0  0  0
    1.5000   -5.1962    0.0000 C   0  0  0  0  0  0  0  0  0  0  0  0
    0.7500   -3.8971    0.0000 C   0  0  0  0  0  0  0  0  0  0  0  0
    1.5000   -2.5981    0.0000 C   0  0  0  0  0  0  0  0  0  0  0  0
    0.7500   -1.2990    0.0000 C   0  0  0  0  0  0  0  0  0  0  0  0
    1.5000    0.0000    0.0000 C   0  0  0  0  0  0  0  0  0  0  0  0
    0.7500    1.2990    0.0000 C   0  0  0  0  0  0  0  0  0  0  0  0
    1.5000    2.5981    0.0000 O   0  0  0  0  0  0  0  0  0  0  0  0
   -0.7500    1.2990    0.0000 C   0  0  0  0  0  0  0  0  0  0  0  0
   -1.5000    0.0000    0.0000 C   0  0  0  0  0  0  0  0  0  0  0  0
   -0.7500   -1.2990    0.0000 C   0  0  0  0  0  0  0  0  0  0  0  0
   -2.2500   -1.2990    0.0000 C   0  0  0  0  0  0  0  0  0  0  0  0
   -1.5000   -2.5981    0.0000 C   0  0  0  0  0  0  0  0  0  0  0  0
   -3.0000   -2.5981    0.0000 C   0  0  0  0  0  0  0  0  0  0  0  0
   -3.7500   -3.8971    0.0000 C   0  0  0  0  0  0  0  0  0  0  0  0
   -3.0000   -5.1962    0.0000 C   0  0  0  0  0  0  0  0  0  0  0  0
   -4.4918   -5.3529    0.0000 C   0  0  0  0  0  0  0  0  0  0  0  0
   -3.4635   -6.6227    0.0000 C   0  0  0  0  0  0  0  0  0  0  0  0
   -4.8901   -7.0863    0.0000 O   0  0  0  0  0  0  0  0  0  0  0  0
   -2.2500   -7.5044    0.0000 C   0  0  0  0  0  0  0  0  0  0  0  0
   -1.0365   -6.6227    0.0000 C   0  0  0  0  0  0  0  0  0  0  0  0
   -1.5000   -5.1962    0.0000 C   0  0  0  0  0  0  0  0  0  0  0  0
   -0.7500   -3.8971    0.0000 C   0  0  0  0  0  0  0  0  0  0  0  0
  1  2  1  0
  2  3  1  0
  3  4  1  0
  4  5  1  0
  5  6  2  0
  5  7  1  0
  7  8  1  0
  8  9  1  0
  9 10  1  0
 10 11  1  0
 11 12  1  0
 12 13  1  0
 13 14  1  0
 14 15  1  0
 16 15  1  6
 16 17  1  0
 17 18  1  0
 18 19  2  0
 18 20  1  0
 20 21  1  0
 21 22  1  0
 22 23  1  6
 22 24  1  0
 24 25  1  6
 25 26  1  0
 26 27  1  0
 27 28  1  6
 27 29  1  0
 29 30  1  6
 29 31  1  0
 31 32  1  0
 33 32  1  6
 33 34  1  0
 34 14  1  1
 22 16  1  0
 34 24  1  0
 33 27  1  0
M  END
>  <assay_chembl_id>  (101) 
CHEMBL914604

>  <assay_description>  (101) 
Displacement of [3H]mibolerone from androgen receptor expressed in CHOK1 cells

>  <parent_molecule_chembl_id>  (101) 
CHEMBL224734

>  <canonical_smiles>  (101) 
CCCNC(=O)CCCCCCCC1C[C@H]2CC(=O)CC[C@]2(C)[C@H]2CC[C@]3(C)[C@@H](O)CC[C@H]3[C@H]12

>  <standard_type>  (101) 
IC50

>  <standard_relation>  (101) 
=

>  <standard_value>  (101) 
1600.0

>  <standard_units>  (101) 
nM

>  <target_pref_name>  (101) 
Androgen Receptor

>  <target_chembl_id>  (101) 
CHEMBL1871

>  <target_organism>  (101) 
Homo sapiens

>  <pchembl_median>  (101) 
7.83

$$$$
CHEMBL387651
     RDKit          2D

 33 36  0  0  0  0  0  0  0  0999 V2000
   12.7500  -11.6913    0.0000 C   0  0  0  0  0  0  0  0  0  0  0  0
   12.0000  -10.3923    0.0000 C   0  0  0  0  0  0  0  0  0  0  0  0
   10.5000  -10.3923    0.0000 N   0  0  0  0  0  0  0  0  0  0  0  0
    9.7500   -9.0933    0.0000 C   0  0  0  0  0  0  0  0  0  0  0  0
   10.5000   -7.7942    0.0000 O   0  0  0  0  0  0  0  0  0  0  0  0
    8.2500   -9.0933    0.0000 C   0  0  0  0  0  0  0  0  0  0  0  0
    7.5000   -7.7942    0.0000 C   0  0  0  0  0  0  0  0  0  0  0  0
    6.0000   -7.7942    0.0000 C   0  0  0  0  0  0  0  0  0  0  0  0
    5.2500   -6.4952    0.0000 C   0  0  0  0  0  0  0  0  0  0  0  0
    3.7500   -6.4952    0.0000 C   0  0  0  0  0  0  0  0  0  0  0  0
    3.0000   -5.1962    0.0000 C   0  0  0  0  0  0  0  0  0  0  0  0
    1.5000   -5.1962    0.0000 C   0  0  0  0  0  0  0  0  0  0  0  0
    0.7500   -3.8971    0.0000 C   0  0  0  0  0  0  0  0  0  0  0  0
    1.5000   -2.5981    0.0000 C   0  0  0  0  0  0  0  0  0  0  0  0
    0.7500   -1.2990    0.0000 C   0  0  0  0  0  0  0  0  0  0  0  0
    1.5000    0.0000    0.0000 C   0  0  0  0  0  0  0  0  0  0  0  0
    0.7500    1.2990    0.0000 C   0  0  0  0  0  0  0  0  0  0  0  0
    1.5000    2.5981    0.0000 O   0  0  0  0  0  0  0  0  0  0  0  0
   -0.7500    1.2990    0.0000 C   0  0  0  0  0  0  0  0  0  0  0  0
   -1.5000    0.0000    0.0000 C   0  0  0  0  0  0  0  0  0  0  0  0
   -0.7500   -1.2990    0.0000 C   0  0  0  0  0  0  0  0  0  0  0  0
   -2.2500   -1.2990    0.0000 C   0  0  0  0  0  0  0  0  0  0  0  0
   -1.5000   -2.5981    0.0000 C   0  0  0  0  0  0  0  0  0  0  0  0
   -3.0000   -2.5981    0.0000 C   0  0  0  0  0  0  0  0  0  0  0  0
   -3.7500   -3.8971    0.0000 C   0  0  0  0  0  0  0  0  0  0  0  0
   -3.0000   -5.1962    0.0000 C   0  0  0  0  0  0  0  0  0  0  0  0
   -4.4918   -5.3529    0.0000 C   0  0  0  0  0  0  0  0  0  0  0  0
   -3.4635   -6.6227    0.0000 C   0  0  0  0  0  0  0  0  0  0  0  0
   -4.8901   -7.0863    0.0000 O   0  0  0  0  0  0  0  0  0  0  0  0
   -2.2500   -7.5044    0.0000 C   0  0  0  0  0  0  0  0  0  0  0  0
   -1.0365   -6.6227    0.0000 C   0  0  0  0  0  0  0  0  0  0  0  0
   -1.5000   -5.1962    0.0000 C   0  0  0  0  0  0  0  0  0  0  0  0
   -0.7500   -3.8971    0.0000 C   0  0  0  0  0  0  0  0  0  0  0  0
  1  2  1  0
  2  3  1  0
  3  4  1  0
  4  5  2  0
  4  6  1  0
  6  7  1  0
  7  8  1  0
  8  9  1  0
  9 10  1  0
 10 11  1  0
 11 12  1  0
 12 13  1  0
 13 14  1  0
 15 14  1  6
 15 16  1  0
 16 17  1  0
 17 18  2  0
 17 19  1  0
 19 20  1  0
 20 21  1  0
 21 22  1  6
 21 23  1  0
 23 24  1  6
 24 25  1  0
 25 26  1  0
 26 27  1  6
 26 28  1  0
 28 29  1  6
 28 30  1  0
 30 31  1  0
 32 31  1  6
 32 33  1  0
 33 13  1  1
 21 15  1  0
 33 23  1  0
 32 26  1  0
M  END
>  <assay_chembl_id>  (102) 
CHEMBL914604

>  <assay_description>  (102) 
Displacement of [3H]mibolerone from androgen receptor expressed in CHOK1 cells

>  <parent_molecule_chembl_id>  (102) 
CHEMBL387651

>  <canonical_smiles>  (102) 
CCNC(=O)CCCCCCCC1C[C@H]2CC(=O)CC[C@]2(C)[C@H]2CC[C@]3(C)[C@@H](O)CC[C@H]3[C@H]12

>  <standard_type>  (102) 
IC50

>  <standard_relation>  (102) 
=

>  <standard_value>  (102) 
1500.0

>  <standard_units>  (102) 
nM

>  <target_pref_name>  (102) 
Androgen Receptor

>  <target_chembl_id>  (102) 
CHEMBL1871

>  <target_organism>  (102) 
Homo sapiens

>  <pchembl_median>  (102) 
7.96

$$$$
CHEMBL427078
     RDKit          2D

 32 35  0  0  0  0  0  0  0  0999 V2000
   12.0000  -10.3923    0.0000 C   0  0  0  0  0  0  0  0  0  0  0  0
   10.5000  -10.3923    0.0000 N   0  0  0  0  0  0  0  0  0  0  0  0
    9.7500   -9.0933    0.0000 C   0  0  0  0  0  0  0  0  0  0  0  0
   10.5000   -7.7942    0.0000 O   0  0  0  0  0  0  0  0  0  0  0  0
    8.2500   -9.0933    0.0000 C   0  0  0  0  0  0  0  0  0  0  0  0
    7.5000   -7.7942    0.0000 C   0  0  0  0  0  0  0  0  0  0  0  0
    6.0000   -7.7942    0.0000 C   0  0  0  0  0  0  0  0  0  0  0  0
    5.2500   -6.4952    0.0000 C   0  0  0  0  0  0  0  0  0  0  0  0
    3.7500   -6.4952    0.0000 C   0  0  0  0  0  0  0  0  0  0  0  0
    3.0000   -5.1962    0.0000 C   0  0  0  0  0  0  0  0  0  0  0  0
    1.5000   -5.1962    0.0000 C   0  0  0  0  0  0  0  0  0  0  0  0
    0.7500   -3.8971    0.0000 C   0  0  0  0  0  0  0  0  0  0  0  0
    1.5000   -2.5981    0.0000 C   0  0  0  0  0  0  0  0  0  0  0  0
    0.7500   -1.2990    0.0000 C   0  0  0  0  0  0  0  0  0  0  0  0
    1.5000    0.0000    0.0000 C   0  0  0  0  0  0  0  0  0  0  0  0
    0.7500    1.2990    0.0000 C   0  0  0  0  0  0  0  0  0  0  0  0
    1.5000    2.5981    0.0000 O   0  0  0  0  0  0  0  0  0  0  0  0
   -0.7500    1.2990    0.0000 C   0  0  0  0  0  0  0  0  0  0  0  0
   -1.5000    0.0000    0.0000 C   0  0  0  0  0  0  0  0  0  0  0  0
   -0.7500   -1.2990    0.0000 C   0  0  0  0  0  0  0  0  0  0  0  0
   -2.2500   -1.2990    0.0000 C   0  0  0  0  0  0  0  0  0  0  0  0
   -1.5000   -2.5981    0.0000 C   0  0  0  0  0  0  0  0  0  0  0  0
   -3.0000   -2.5981    0.0000 C   0  0  0  0  0  0  0  0  0  0  0  0
   -3.7500   -3.8971    0.0000 C   0  0  0  0  0  0  0  0  0  0  0  0
   -3.0000   -5.1962    0.0000 C   0  0  0  0  0  0  0  0  0  0  0  0
   -4.4918   -5.3529    0.0000 C   0  0  0  0  0  0  0  0  0  0  0  0
   -3.4635   -6.6227    0.0000 C   0  0  0  0  0  0  0  0  0  0  0  0
   -4.8901   -7.0863    0.0000 O   0  0  0  0  0  0  0  0  0  0  0  0
   -2.2500   -7.5044    0.0000 C   0  0  0  0  0  0  0  0  0  0  0  0
   -1.0365   -6.6227    0.0000 C   0  0  0  0  0  0  0  0  0  0  0  0
   -1.5000   -5.1962    0.0000 C   0  0  0  0  0  0  0  0  0  0  0  0
   -0.7500   -3.8971    0.0000 C   0  0  0  0  0  0  0  0  0  0  0  0
  1  2  1  0
  2  3  1  0
  3  4  2  0
  3  5  1  0
  5  6  1  0
  6  7  1  0
  7  8  1  0
  8  9  1  0
  9 10  1  0
 10 11  1  0
 11 12  1  0
 12 13  1  0
 14 13  1  6
 14 15  1  0
 15 16  1  0
 16 17  2  0
 16 18  1  0
 18 19  1  0
 19 20  1  0
 20 21  1  6
 20 22  1  0
 22 23  1  6
 23 24  1  0
 24 25  1  0
 25 26  1  6
 25 27  1  0
 27 28  1  6
 27 29  1  0
 29 30  1  0
 31 30  1  6
 31 32  1  0
 32 12  1  1
 20 14  1  0
 32 22  1  0
 31 25  1  0
M  END
>  <assay_chembl_id>  (103) 
CHEMBL914604

>  <assay_description>  (103) 
Displacement of [3H]mibolerone from androgen receptor expressed in CHOK1 cells

>  <parent_molecule_chembl_id>  (103) 
CHEMBL427078

>  <canonical_smiles>  (103) 
CNC(=O)CCCCCCCC1C[C@H]2CC(=O)CC[C@]2(C)[C@H]2CC[C@]3(C)[C@@H](O)CC[C@H]3[C@H]12

>  <standard_type>  (103) 
IC50

>  <standard_relation>  (103) 
=

>  <standard_value>  (103) 
710.0

>  <standard_units>  (103) 
nM

>  <target_pref_name>  (103) 
Androgen Receptor

>  <target_chembl_id>  (103) 
CHEMBL1871

>  <target_organism>  (103) 
Homo sapiens

>  <pchembl_median>  (103) 
7.635

$$$$
CHEMBL224733
     RDKit          2D

 31 34  0  0  0  0  0  0  0  0999 V2000
   -4.4918   -5.3529    0.0000 C   0  0  0  0  0  0  0  0  0  0  0  0
   -3.0000   -5.1962    0.0000 C   0  0  0  0  0  0  0  0  0  0  0  0
   -3.7500   -3.8971    0.0000 C   0  0  0  0  0  0  0  0  0  0  0  0
   -3.0000   -2.5981    0.0000 C   0  0  0  0  0  0  0  0  0  0  0  0
   -1.5000   -2.5981    0.0000 C   0  0  0  0  0  0  0  0  0  0  0  0
   -0.7500   -3.8971    0.0000 C   0  0  0  0  0  0  0  0  0  0  0  0
    0.7500   -3.8971    0.0000 C   0  0  0  0  0  0  0  0  0  0  0  0
    1.5000   -5.1962    0.0000 C   0  0  0  0  0  0  0  0  0  0  0  0
    3.0000   -5.1962    0.0000 C   0  0  0  0  0  0  0  0  0  0  0  0
    3.7500   -6.4952    0.0000 C   0  0  0  0  0  0  0  0  0  0  0  0
    5.2500   -6.4952    0.0000 C   0  0  0  0  0  0  0  0  0  0  0  0
    6.0000   -7.7942    0.0000 C   0  0  0  0  0  0  0  0  0  0  0  0
    7.5000   -7.7942    0.0000 C   0  0  0  0  0  0  0  0  0  0  0  0
    8.2500   -9.0933    0.0000 C   0  0  0  0  0  0  0  0  0  0  0  0
    9.7500   -9.0933    0.0000 C   0  0  0  0  0  0  0  0  0  0  0  0
   10.5000  -10.3923    0.0000 N   0  0  0  0  0  0  0  0  0  0  0  0
   10.5000   -7.7942    0.0000 O   0  0  0  0  0  0  0  0  0  0  0  0
    1.5000   -2.5981    0.0000 C   0  0  0  0  0  0  0  0  0  0  0  0
    0.7500   -1.2990    0.0000 C   0  0  0  0  0  0  0  0  0  0  0  0
    1.5000    0.0000    0.0000 C   0  0  0  0  0  0  0  0  0  0  0  0
    0.7500    1.2990    0.0000 C   0  0  0  0  0  0  0  0  0  0  0  0
    1.5000    2.5981    0.0000 O   0  0  0  0  0  0  0  0  0  0  0  0
   -0.7500    1.2990    0.0000 C   0  0  0  0  0  0  0  0  0  0  0  0
   -1.5000    0.0000    0.0000 C   0  0  0  0  0  0  0  0  0  0  0  0
   -0.7500   -1.2990    0.0000 C   0  0  0  0  0  0  0  0  0  0  0  0
   -2.2500   -1.2990    0.0000 C   0  0  0  0  0  0  0  0  0  0  0  0
   -1.5000   -5.1962    0.0000 C   0  0  0  0  0  0  0  0  0  0  0  0
   -1.0365   -6.6227    0.0000 C   0  0  0  0  0  0  0  0  0  0  0  0
   -2.2500   -7.5044    0.0000 C   0  0  0  0  0  0  0  0  0  0  0  0
   -3.4635   -6.6227    0.0000 C   0  0  0  0  0  0  0  0  0  0  0  0
   -4.8901   -7.0863    0.0000 O   0  0  0  0  0  0  0  0  0  0  0  0
  2  1  1  6
  2  3  1  0
  3  4  1  0
  5  4  1  6
  5  6  1  0
  6  7  1  1
  7  8  1  0
  8  9  1  0
  9 10  1  0
 10 11  1  0
 11 12  1  0
 12 13  1  0
 13 14  1  0
 14 15  1  0
 15 16  1  0
 15 17  2  0
  7 18  1  0
 19 18  1  6
 19 20  1  0
 20 21  1  0
 21 22  2  0
 21 23  1  0
 23 24  1  0
 24 25  1  0
 25 26  1  6
  6 27  1  0
 27 28  1  6
 28 29  1  0
 29 30  1  0
 30 31  1  6
 27  2  1  0
 30  2  1  0
 25  5  1  0
 25 19  1  0
M  END
>  <assay_chembl_id>  (104) 
CHEMBL914604

>  <assay_description>  (104) 
Displacement of [3H]mibolerone from androgen receptor expressed in CHOK1 cells

>  <parent_molecule_chembl_id>  (104) 
CHEMBL224733

>  <canonical_smiles>  (104) 
C[C@]12CC[C@H]3[C@@H](C(CCCCCCCC(N)=O)C[C@H]4CC(=O)CC[C@@]43C)[C@@H]1CC[C@@H]2O

>  <standard_type>  (104) 
IC50

>  <standard_relation>  (104) 
=

>  <standard_value>  (104) 
260.0

>  <standard_units>  (104) 
nM

>  <target_pref_name>  (104) 
Androgen Receptor

>  <target_chembl_id>  (104) 
CHEMBL1871

>  <target_organism>  (104) 
Homo sapiens

>  <pchembl_median>  (104) 
7.01

$$$$
CHEMBL224707
     RDKit          2D

 36 40  0  0  0  0  0  0  0  0999 V2000
   -4.4918   -5.3529    0.0000 C   0  0  0  0  0  0  0  0  0  0  0  0
   -3.0000   -5.1962    0.0000 C   0  0  0  0  0  0  0  0  0  0  0  0
   -3.7500   -3.8971    0.0000 C   0  0  0  0  0  0  0  0  0  0  0  0
   -3.0000   -2.5981    0.0000 C   0  0  0  0  0  0  0  0  0  0  0  0
   -1.5000   -2.5981    0.0000 C   0  0  0  0  0  0  0  0  0  0  0  0
   -0.7500   -3.8971    0.0000 C   0  0  0  0  0  0  0  0  0  0  0  0
    0.7500   -3.8971    0.0000 C   0  0  0  0  0  0  0  0  0  0  0  0
    1.5000   -5.1962    0.0000 C   0  0  0  0  0  0  0  0  0  0  0  0
    3.0000   -5.1962    0.0000 C   0  0  0  0  0  0  0  0  0  0  0  0
    3.7500   -6.4952    0.0000 C   0  0  0  0  0  0  0  0  0  0  0  0
    5.2500   -6.4952    0.0000 C   0  0  0  0  0  0  0  0  0  0  0  0
    6.0000   -7.7942    0.0000 C   0  0  0  0  0  0  0  0  0  0  0  0
    7.5000   -7.7942    0.0000 C   0  0  0  0  0  0  0  0  0  0  0  0
    8.2500   -9.0933    0.0000 C   0  0  0  0  0  0  0  0  0  0  0  0
    9.7500   -9.0933    0.0000 C   0  0  0  0  0  0  0  0  0  0  0  0
   10.5000   -7.7942    0.0000 O   0  0  0  0  0  0  0  0  0  0  0  0
   10.5000  -10.3923    0.0000 N   0  0  0  0  0  0  0  0  0  0  0  0
    9.7500  -11.6913    0.0000 C   0  0  0  0  0  0  0  0  0  0  0  0
   10.5000  -12.9904    0.0000 C   0  0  0  0  0  0  0  0  0  0  0  0
   12.0000  -12.9904    0.0000 C   0  0  0  0  0  0  0  0  0  0  0  0
   12.7500  -11.6913    0.0000 C   0  0  0  0  0  0  0  0  0  0  0  0
   12.0000  -10.3923    0.0000 C   0  0  0  0  0  0  0  0  0  0  0  0
    1.5000   -2.5981    0.0000 C   0  0  0  0  0  0  0  0  0  0  0  0
    0.7500   -1.2990    0.0000 C   0  0  0  0  0  0  0  0  0  0  0  0
    1.5000    0.0000    0.0000 C   0  0  0  0  0  0  0  0  0  0  0  0
    0.7500    1.2990    0.0000 C   0  0  0  0  0  0  0  0  0  0  0  0
    1.5000    2.5981    0.0000 O   0  0  0  0  0  0  0  0  0  0  0  0
   -0.7500    1.2990    0.0000 C   0  0  0  0  0  0  0  0  0  0  0  0
   -1.5000    0.0000    0.0000 C   0  0  0  0  0  0  0  0  0  0  0  0
   -0.7500   -1.2990    0.0000 C   0  0  0  0  0  0  0  0  0  0  0  0
   -2.2500   -1.2990    0.0000 C   0  0  0  0  0  0  0  0  0  0  0  0
   -1.5000   -5.1962    0.0000 C   0  0  0  0  0  0  0  0  0  0  0  0
   -1.0365   -6.6227    0.0000 C   0  0  0  0  0  0  0  0  0  0  0  0
   -2.2500   -7.5044    0.0000 C   0  0  0  0  0  0  0  0  0  0  0  0
   -3.4635   -6.6227    0.0000 C   0  0  0  0  0  0  0  0  0  0  0  0
   -4.8901   -7.0863    0.0000 O   0  0  0  0  0  0  0  0  0  0  0  0
  2  1  1  6
  2  3  1  0
  3  4  1  0
  5  4  1  6
  5  6  1  0
  6  7  1  1
  7  8  1  0
  8  9  1  0
  9 10  1  0
 10 11  1  0
 11 12  1  0
 12 13  1  0
 13 14  1  0
 14 15  1  0
 15 16  2  0
 15 17  1  0
 17 18  1  0
 18 19  1  0
 19 20  1  0
 20 21  1  0
 21 22  1  0
  7 23  1  0
 24 23  1  6
 24 25  1  0
 25 26  1  0
 26 27  2  0
 26 28  1  0
 28 29  1  0
 29 30  1  0
 30 31  1  6
  6 32  1  0
 32 33  1  6
 33 34  1  0
 34 35  1  0
 35 36  1  6
 32  2  1  0
 35  2  1  0
 30  5  1  0
 22 17  1  0
 30 24  1  0
M  END
>  <assay_chembl_id>  (105) 
CHEMBL914604

>  <assay_description>  (105) 
Displacement of [3H]mibolerone from androgen receptor expressed in CHOK1 cells

>  <parent_molecule_chembl_id>  (105) 
CHEMBL224707

>  <canonical_smiles>  (105) 
C[C@]12CC[C@H]3[C@@H](C(CCCCCCCC(=O)N4CCCCC4)C[C@H]4CC(=O)CC[C@@]43C)[C@@H]1CC[C@@H]2O

>  <standard_type>  (105) 
IC50

>  <standard_relation>  (105) 
=

>  <standard_value>  (105) 
120.0

>  <standard_units>  (105) 
nM

>  <target_pref_name>  (105) 
Androgen Receptor

>  <target_chembl_id>  (105) 
CHEMBL1871

>  <target_organism>  (105) 
Homo sapiens

>  <pchembl_median>  (105) 
6.12

$$$$
CHEMBL427243
     RDKit          2D

 35 39  0  0  0  0  0  0  0  0999 V2000
   -4.4918   -5.3529    0.0000 C   0  0  0  0  0  0  0  0  0  0  0  0
   -3.0000   -5.1962    0.0000 C   0  0  0  0  0  0  0  0  0  0  0  0
   -3.7500   -3.8971    0.0000 C   0  0  0  0  0  0  0  0  0  0  0  0
   -3.0000   -2.5981    0.0000 C   0  0  0  0  0  0  0  0  0  0  0  0
   -1.5000   -2.5981    0.0000 C   0  0  0  0  0  0  0  0  0  0  0  0
   -0.7500   -3.8971    0.0000 C   0  0  0  0  0  0  0  0  0  0  0  0
    0.7500   -3.8971    0.0000 C   0  0  0  0  0  0  0  0  0  0  0  0
    1.5000   -5.1962    0.0000 C   0  0  0  0  0  0  0  0  0  0  0  0
    3.0000   -5.1962    0.0000 C   0  0  0  0  0  0  0  0  0  0  0  0
    3.7500   -6.4952    0.0000 C   0  0  0  0  0  0  0  0  0  0  0  0
    5.2500   -6.4952    0.0000 C   0  0  0  0  0  0  0  0  0  0  0  0
    6.0000   -7.7942    0.0000 C   0  0  0  0  0  0  0  0  0  0  0  0
    7.5000   -7.7942    0.0000 C   0  0  0  0  0  0  0  0  0  0  0  0
    8.2500   -9.0933    0.0000 C   0  0  0  0  0  0  0  0  0  0  0  0
    9.7500   -9.0933    0.0000 C   0  0  0  0  0  0  0  0  0  0  0  0
   10.5000   -7.7942    0.0000 O   0  0  0  0  0  0  0  0  0  0  0  0
   10.5000  -10.3923    0.0000 N   0  0  0  0  0  0  0  0  0  0  0  0
   11.9918  -10.5491    0.0000 C   0  0  0  0  0  0  0  0  0  0  0  0
   12.3037  -12.0163    0.0000 C   0  0  0  0  0  0  0  0  0  0  0  0
   11.0046  -12.7663    0.0000 C   0  0  0  0  0  0  0  0  0  0  0  0
    9.8899  -11.7626    0.0000 C   0  0  0  0  0  0  0  0  0  0  0  0
    1.5000   -2.5981    0.0000 C   0  0  0  0  0  0  0  0  0  0  0  0
    0.7500   -1.2990    0.0000 C   0  0  0  0  0  0  0  0  0  0  0  0
    1.5000    0.0000    0.0000 C   0  0  0  0  0  0  0  0  0  0  0  0
    0.7500    1.2990    0.0000 C   0  0  0  0  0  0  0  0  0  0  0  0
    1.5000    2.5981    0.0000 O   0  0  0  0  0  0  0  0  0  0  0  0
   -0.7500    1.2990    0.0000 C   0  0  0  0  0  0  0  0  0  0  0  0
   -1.5000    0.0000    0.0000 C   0  0  0  0  0  0  0  0  0  0  0  0
   -0.7500   -1.2990    0.0000 C   0  0  0  0  0  0  0  0  0  0  0  0
   -2.2500   -1.2990    0.0000 C   0  0  0  0  0  0  0  0  0  0  0  0
   -1.5000   -5.1962    0.0000 C   0  0  0  0  0  0  0  0  0  0  0  0
   -1.0365   -6.6227    0.0000 C   0  0  0  0  0  0  0  0  0  0  0  0
   -2.2500   -7.5044    0.0000 C   0  0  0  0  0  0  0  0  0  0  0  0
   -3.4635   -6.6227    0.0000 C   0  0  0  0  0  0  0  0  0  0  0  0
   -4.8901   -7.0863    0.0000 O   0  0  0  0  0  0  0  0  0  0  0  0
  2  1  1  6
  2  3  1  0
  3  4  1  0
  5  4  1  6
  5  6  1  0
  6  7  1  1
  7  8  1  0
  8  9  1  0
  9 10  1  0
 10 11  1  0
 11 12  1  0
 12 13  1  0
 13 14  1  0
 14 15  1  0
 15 16  2  0
 15 17  1  0
 17 18  1  0
 18 19  1  0
 19 20  1  0
 20 21  1  0
  7 22  1  0
 23 22  1  6
 23 24  1  0
 24 25  1  0
 25 26  2  0
 25 27  1  0
 27 28  1  0
 28 29  1  0
 29 30  1  6
  6 31  1  0
 31 32  1  6
 32 33  1  0
 33 34  1  0
 34 35  1  6
 31  2  1  0
 34  2  1  0
 29  5  1  0
 21 17  1  0
 29 23  1  0
M  END
>  <assay_chembl_id>  (106) 
CHEMBL914604

>  <assay_description>  (106) 
Displacement of [3H]mibolerone from androgen receptor expressed in CHOK1 cells

>  <parent_molecule_chembl_id>  (106) 
CHEMBL427243

>  <canonical_smiles>  (106) 
C[C@]12CC[C@H]3[C@@H](C(CCCCCCCC(=O)N4CCCC4)C[C@H]4CC(=O)CC[C@@]43C)[C@@H]1CC[C@@H]2O

>  <standard_type>  (106) 
IC50

>  <standard_relation>  (106) 
=

>  <standard_value>  (106) 
350.0

>  <standard_units>  (106) 
nM

>  <target_pref_name>  (106) 
Androgen Receptor

>  <target_chembl_id>  (106) 
CHEMBL1871

>  <target_organism>  (106) 
Homo sapiens

>  <pchembl_median>  (106) 
6.06

$$$$
CHEMBL224654
     RDKit          2D

 36 40  0  0  0  0  0  0  0  0999 V2000
   -4.4918   -5.3529    0.0000 C   0  0  0  0  0  0  0  0  0  0  0  0
   -3.0000   -5.1962    0.0000 C   0  0  0  0  0  0  0  0  0  0  0  0
   -3.7500   -3.8971    0.0000 C   0  0  0  0  0  0  0  0  0  0  0  0
   -3.0000   -2.5981    0.0000 C   0  0  0  0  0  0  0  0  0  0  0  0
   -1.5000   -2.5981    0.0000 C   0  0  0  0  0  0  0  0  0  0  0  0
   -0.7500   -3.8971    0.0000 C   0  0  0  0  0  0  0  0  0  0  0  0
    0.7500   -3.8971    0.0000 C   0  0  0  0  0  0  0  0  0  0  0  0
    1.5000   -5.1962    0.0000 C   0  0  0  0  0  0  0  0  0  0  0  0
    3.0000   -5.1962    0.0000 C   0  0  0  0  0  0  0  0  0  0  0  0
    3.7500   -6.4952    0.0000 C   0  0  0  0  0  0  0  0  0  0  0  0
    5.2500   -6.4952    0.0000 C   0  0  0  0  0  0  0  0  0  0  0  0
    6.0000   -7.7942    0.0000 C   0  0  0  0  0  0  0  0  0  0  0  0
    7.5000   -7.7942    0.0000 C   0  0  0  0  0  0  0  0  0  0  0  0
    8.2500   -9.0933    0.0000 C   0  0  0  0  0  0  0  0  0  0  0  0
    9.7500   -9.0933    0.0000 C   0  0  0  0  0  0  0  0  0  0  0  0
   10.5000   -7.7942    0.0000 O   0  0  0  0  0  0  0  0  0  0  0  0
   10.5000  -10.3923    0.0000 N   0  0  0  0  0  0  0  0  0  0  0  0
    9.7500  -11.6913    0.0000 C   0  0  0  0  0  0  0  0  0  0  0  0
   10.5000  -12.9904    0.0000 C   0  0  0  0  0  0  0  0  0  0  0  0
   12.0000  -12.9904    0.0000 O   0  0  0  0  0  0  0  0  0  0  0  0
   12.7500  -11.6913    0.0000 C   0  0  0  0  0  0  0  0  0  0  0  0
   12.0000  -10.3923    0.0000 C   0  0  0  0  0  0  0  0  0  0  0  0
    1.5000   -2.5981    0.0000 C   0  0  0  0  0  0  0  0  0  0  0  0
    0.7500   -1.2990    0.0000 C   0  0  0  0  0  0  0  0  0  0  0  0
    1.5000    0.0000    0.0000 C   0  0  0  0  0  0  0  0  0  0  0  0
    0.7500    1.2990    0.0000 C   0  0  0  0  0  0  0  0  0  0  0  0
    1.5000    2.5981    0.0000 O   0  0  0  0  0  0  0  0  0  0  0  0
   -0.7500    1.2990    0.0000 C   0  0  0  0  0  0  0  0  0  0  0  0
   -1.5000    0.0000    0.0000 C   0  0  0  0  0  0  0  0  0  0  0  0
   -0.7500   -1.2990    0.0000 C   0  0  0  0  0  0  0  0  0  0  0  0
   -2.2500   -1.2990    0.0000 C   0  0  0  0  0  0  0  0  0  0  0  0
   -1.5000   -5.1962    0.0000 C   0  0  0  0  0  0  0  0  0  0  0  0
   -1.0365   -6.6227    0.0000 C   0  0  0  0  0  0  0  0  0  0  0  0
   -2.2500   -7.5044    0.0000 C   0  0  0  0  0  0  0  0  0  0  0  0
   -3.4635   -6.6227    0.0000 C   0  0  0  0  0  0  0  0  0  0  0  0
   -4.8901   -7.0863    0.0000 O   0  0  0  0  0  0  0  0  0  0  0  0
  2  1  1  6
  2  3  1  0
  3  4  1  0
  5  4  1  6
  5  6  1  0
  6  7  1  1
  7  8  1  0
  8  9  1  0
  9 10  1  0
 10 11  1  0
 11 12  1  0
 12 13  1  0
 13 14  1  0
 14 15  1  0
 15 16  2  0
 15 17  1  0
 17 18  1  0
 18 19  1  0
 19 20  1  0
 20 21  1  0
 21 22  1  0
  7 23  1  0
 24 23  1  6
 24 25  1  0
 25 26  1  0
 26 27  2  0
 26 28  1  0
 28 29  1  0
 29 30  1  0
 30 31  1  6
  6 32  1  0
 32 33  1  6
 33 34  1  0
 34 35  1  0
 35 36  1  6
 32  2  1  0
 35  2  1  0
 30  5  1  0
 22 17  1  0
 30 24  1  0
M  END
>  <assay_chembl_id>  (107) 
CHEMBL914604

>  <assay_description>  (107) 
Displacement of [3H]mibolerone from androgen receptor expressed in CHOK1 cells

>  <parent_molecule_chembl_id>  (107) 
CHEMBL224654

>  <canonical_smiles>  (107) 
C[C@]12CC[C@H]3[C@@H](C(CCCCCCCC(=O)N4CCOCC4)C[C@H]4CC(=O)CC[C@@]43C)[C@@H]1CC[C@@H]2O

>  <standard_type>  (107) 
IC50

>  <standard_relation>  (107) 
=

>  <standard_value>  (107) 
1300.0

>  <standard_units>  (107) 
nM

>  <target_pref_name>  (107) 
Androgen Receptor

>  <target_chembl_id>  (107) 
CHEMBL1871

>  <target_organism>  (107) 
Homo sapiens

>  <pchembl_median>  (107) 
6.89

$$$$
CHEMBL223355
     RDKit          2D

 39 43  0  0  0  0  0  0  0  0999 V2000
   12.0000  -10.3923    0.0000 C   0  0  0  0  0  0  0  0  0  0  0  0
   10.5000  -10.3923    0.0000 N   0  0  0  0  0  0  0  0  0  0  0  0
    9.7500  -11.6913    0.0000 C   0  0  0  0  0  0  0  0  0  0  0  0
   10.5000  -12.9904    0.0000 C   0  0  0  0  0  0  0  0  0  0  0  0
    9.7500  -14.2894    0.0000 C   0  0  0  0  0  0  0  0  0  0  0  0
   10.5000  -15.5885    0.0000 C   0  0  0  0  0  0  0  0  0  0  0  0
   12.0000  -15.5885    0.0000 C   0  0  0  0  0  0  0  0  0  0  0  0
   12.7500  -14.2894    0.0000 C   0  0  0  0  0  0  0  0  0  0  0  0
   12.0000  -12.9904    0.0000 C   0  0  0  0  0  0  0  0  0  0  0  0
    9.7500   -9.0933    0.0000 C   0  0  0  0  0  0  0  0  0  0  0  0
   10.5000   -7.7942    0.0000 O   0  0  0  0  0  0  0  0  0  0  0  0
    8.2500   -9.0933    0.0000 C   0  0  0  0  0  0  0  0  0  0  0  0
    7.5000   -7.7942    0.0000 C   0  0  0  0  0  0  0  0  0  0  0  0
    6.0000   -7.7942    0.0000 C   0  0  0  0  0  0  0  0  0  0  0  0
    5.2500   -6.4952    0.0000 C   0  0  0  0  0  0  0  0  0  0  0  0
    3.7500   -6.4952    0.0000 C   0  0  0  0  0  0  0  0  0  0  0  0
    3.0000   -5.1962    0.0000 C   0  0  0  0  0  0  0  0  0  0  0  0
    1.5000   -5.1962    0.0000 C   0  0  0  0  0  0  0  0  0  0  0  0
    0.7500   -3.8971    0.0000 C   0  0  0  0  0  0  0  0  0  0  0  0
    1.5000   -2.5981    0.0000 C   0  0  0  0  0  0  0  0  0  0  0  0
    0.7500   -1.2990    0.0000 C   0  0  0  0  0  0  0  0  0  0  0  0
    1.5000    0.0000    0.0000 C   0  0  0  0  0  0  0  0  0  0  0  0
    0.7500    1.2990    0.0000 C   0  0  0  0  0  0  0  0  0  0  0  0
    1.5000    2.5981    0.0000 O   0  0  0  0  0  0  0  0  0  0  0  0
   -0.7500    1.2990    0.0000 C   0  0  0  0  0  0  0  0  0  0  0  0
   -1.5000    0.0000    0.0000 C   0  0  0  0  0  0  0  0  0  0  0  0
   -0.7500   -1.2990    0.0000 C   0  0  0  0  0  0  0  0  0  0  0  0
   -2.2500   -1.2990    0.0000 C   0  0  0  0  0  0  0  0  0  0  0  0
   -1.5000   -2.5981    0.0000 C   0  0  0  0  0  0  0  0  0  0  0  0
   -3.0000   -2.5981    0.0000 C   0  0  0  0  0  0  0  0  0  0  0  0
   -3.7500   -3.8971    0.0000 C   0  0  0  0  0  0  0  0  0  0  0  0
   -3.0000   -5.1962    0.0000 C   0  0  0  0  0  0  0  0  0  0  0  0
   -4.4918   -5.3529    0.0000 C   0  0  0  0  0  0  0  0  0  0  0  0
   -3.4635   -6.6227    0.0000 C   0  0  0  0  0  0  0  0  0  0  0  0
   -4.8901   -7.0863    0.0000 O   0  0  0  0  0  0  0  0  0  0  0  0
   -2.2500   -7.5044    0.0000 C   0  0  0  0  0  0  0  0  0  0  0  0
   -1.0365   -6.6227    0.0000 C   0  0  0  0  0  0  0  0  0  0  0  0
   -1.5000   -5.1962    0.0000 C   0  0  0  0  0  0  0  0  0  0  0  0
   -0.7500   -3.8971    0.0000 C   0  0  0  0  0  0  0  0  0  0  0  0
  1  2  1  0
  2  3  1  0
  3  4  1  0
  4  5  2  0
  5  6  1  0
  6  7  2  0
  7  8  1  0
  8  9  2  0
  2 10  1  0
 10 11  2  0
 10 12  1  0
 12 13  1  0
 13 14  1  0
 14 15  1  0
 15 16  1  0
 16 17  1  0
 17 18  1  0
 18 19  1  0
 19 20  1  0
 21 20  1  6
 21 22  1  0
 22 23  1  0
 23 24  2  0
 23 25  1  0
 25 26  1  0
 26 27  1  0
 27 28  1  6
 27 29  1  0
 29 30  1  6
 30 31  1  0
 31 32  1  0
 32 33  1  6
 32 34  1  0
 34 35  1  6
 34 36  1  0
 36 37  1  0
 38 37  1  6
 38 39  1  0
  9  4  1  0
 39 19  1  1
 27 21  1  0
 39 29  1  0
 38 32  1  0
M  END
>  <assay_chembl_id>  (108) 
CHEMBL914604

>  <assay_description>  (108) 
Displacement of [3H]mibolerone from androgen receptor expressed in CHOK1 cells

>  <parent_molecule_chembl_id>  (108) 
CHEMBL223355

>  <canonical_smiles>  (108) 
CN(Cc1ccccc1)C(=O)CCCCCCCC1C[C@H]2CC(=O)CC[C@]2(C)[C@H]2CC[C@]3(C)[C@@H](O)CC[C@H]3[C@H]12

>  <standard_type>  (108) 
IC50

>  <standard_relation>  (108) 
=

>  <standard_value>  (108) 
820.0

>  <standard_units>  (108) 
nM

>  <target_pref_name>  (108) 
Androgen Receptor

>  <target_chembl_id>  (108) 
CHEMBL1871

>  <target_organism>  (108) 
Homo sapiens

>  <pchembl_median>  (108) 
6.895

$$$$
CHEMBL224352
     RDKit          2D

 35 38  0  0  0  0  0  0  0  0999 V2000
   12.7500  -11.6913    0.0000 C   0  0  0  0  0  0  0  0  0  0  0  0
   12.0000  -10.3923    0.0000 C   0  0  0  0  0  0  0  0  0  0  0  0
   10.5000  -10.3923    0.0000 N   0  0  0  0  0  0  0  0  0  0  0  0
    9.7500  -11.6913    0.0000 C   0  0  0  0  0  0  0  0  0  0  0  0
   10.5000  -12.9904    0.0000 C   0  0  0  0  0  0  0  0  0  0  0  0
    9.7500   -9.0933    0.0000 C   0  0  0  0  0  0  0  0  0  0  0  0
   10.5000   -7.7942    0.0000 O   0  0  0  0  0  0  0  0  0  0  0  0
    8.2500   -9.0933    0.0000 C   0  0  0  0  0  0  0  0  0  0  0  0
    7.5000   -7.7942    0.0000 C   0  0  0  0  0  0  0  0  0  0  0  0
    6.0000   -7.7942    0.0000 C   0  0  0  0  0  0  0  0  0  0  0  0
    5.2500   -6.4952    0.0000 C   0  0  0  0  0  0  0  0  0  0  0  0
    3.7500   -6.4952    0.0000 C   0  0  0  0  0  0  0  0  0  0  0  0
    3.0000   -5.1962    0.0000 C   0  0  0  0  0  0  0  0  0  0  0  0
    1.5000   -5.1962    0.0000 C   0  0  0  0  0  0  0  0  0  0  0  0
    0.7500   -3.8971    0.0000 C   0  0  0  0  0  0  0  0  0  0  0  0
    1.5000   -2.5981    0.0000 C   0  0  0  0  0  0  0  0  0  0  0  0
    0.7500   -1.2990    0.0000 C   0  0  0  0  0  0  0  0  0  0  0  0
    1.5000    0.0000    0.0000 C   0  0  0  0  0  0  0  0  0  0  0  0
    0.7500    1.2990    0.0000 C   0  0  0  0  0  0  0  0  0  0  0  0
    1.5000    2.5981    0.0000 O   0  0  0  0  0  0  0  0  0  0  0  0
   -0.7500    1.2990    0.0000 C   0  0  0  0  0  0  0  0  0  0  0  0
   -1.5000    0.0000    0.0000 C   0  0  0  0  0  0  0  0  0  0  0  0
   -0.7500   -1.2990    0.0000 C   0  0  0  0  0  0  0  0  0  0  0  0
   -2.2500   -1.2990    0.0000 C   0  0  0  0  0  0  0  0  0  0  0  0
   -1.5000   -2.5981    0.0000 C   0  0  0  0  0  0  0  0  0  0  0  0
   -3.0000   -2.5981    0.0000 C   0  0  0  0  0  0  0  0  0  0  0  0
   -3.7500   -3.8971    0.0000 C   0  0  0  0  0  0  0  0  0  0  0  0
   -3.0000   -5.1962    0.0000 C   0  0  0  0  0  0  0  0  0  0  0  0
   -4.4918   -5.3529    0.0000 C   0  0  0  0  0  0  0  0  0  0  0  0
   -3.4635   -6.6227    0.0000 C   0  0  0  0  0  0  0  0  0  0  0  0
   -4.8901   -7.0863    0.0000 O   0  0  0  0  0  0  0  0  0  0  0  0
   -2.2500   -7.5044    0.0000 C   0  0  0  0  0  0  0  0  0  0  0  0
   -1.0365   -6.6227    0.0000 C   0  0  0  0  0  0  0  0  0  0  0  0
   -1.5000   -5.1962    0.0000 C   0  0  0  0  0  0  0  0  0  0  0  0
   -0.7500   -3.8971    0.0000 C   0  0  0  0  0  0  0  0  0  0  0  0
  1  2  1  0
  2  3  1  0
  3  4  1  0
  4  5  1  0
  3  6  1  0
  6  7  2  0
  6  8  1  0
  8  9  1  0
  9 10  1  0
 10 11  1  0
 11 12  1  0
 12 13  1  0
 13 14  1  0
 14 15  1  0
 15 16  1  0
 17 16  1  6
 17 18  1  0
 18 19  1  0
 19 20  2  0
 19 21  1  0
 21 22  1  0
 22 23  1  0
 23 24  1  6
 23 25  1  0
 25 26  1  6
 26 27  1  0
 27 28  1  0
 28 29  1  6
 28 30  1  0
 30 31  1  6
 30 32  1  0
 32 33  1  0
 34 33  1  6
 34 35  1  0
 35 15  1  1
 23 17  1  0
 35 25  1  0
 34 28  1  0
M  END
>  <assay_chembl_id>  (109) 
CHEMBL914604

>  <assay_description>  (109) 
Displacement of [3H]mibolerone from androgen receptor expressed in CHOK1 cells

>  <parent_molecule_chembl_id>  (109) 
CHEMBL224352

>  <canonical_smiles>  (109) 
CCN(CC)C(=O)CCCCCCCC1C[C@H]2CC(=O)CC[C@]2(C)[C@H]2CC[C@]3(C)[C@@H](O)CC[C@H]3[C@H]12

>  <standard_type>  (109) 
IC50

>  <standard_relation>  (109) 
=

>  <standard_value>  (109) 
120.0

>  <standard_units>  (109) 
nM

>  <target_pref_name>  (109) 
Androgen Receptor

>  <target_chembl_id>  (109) 
CHEMBL1871

>  <target_organism>  (109) 
Homo sapiens

>  <pchembl_median>  (109) 
6.67

$$$$
CHEMBL389277
     RDKit          2D

 33 36  0  0  0  0  0  0  0  0999 V2000
   12.0000  -10.3923    0.0000 C   0  0  0  0  0  0  0  0  0  0  0  0
   10.5000  -10.3923    0.0000 N   0  0  0  0  0  0  0  0  0  0  0  0
    9.7500  -11.6913    0.0000 C   0  0  0  0  0  0  0  0  0  0  0  0
    9.7500   -9.0933    0.0000 C   0  0  0  0  0  0  0  0  0  0  0  0
   10.5000   -7.7942    0.0000 O   0  0  0  0  0  0  0  0  0  0  0  0
    8.2500   -9.0933    0.0000 C   0  0  0  0  0  0  0  0  0  0  0  0
    7.5000   -7.7942    0.0000 C   0  0  0  0  0  0  0  0  0  0  0  0
    6.0000   -7.7942    0.0000 C   0  0  0  0  0  0  0  0  0  0  0  0
    5.2500   -6.4952    0.0000 C   0  0  0  0  0  0  0  0  0  0  0  0
    3.7500   -6.4952    0.0000 C   0  0  0  0  0  0  0  0  0  0  0  0
    3.0000   -5.1962    0.0000 C   0  0  0  0  0  0  0  0  0  0  0  0
    1.5000   -5.1962    0.0000 C   0  0  0  0  0  0  0  0  0  0  0  0
    0.7500   -3.8971    0.0000 C   0  0  0  0  0  0  0  0  0  0  0  0
    1.5000   -2.5981    0.0000 C   0  0  0  0  0  0  0  0  0  0  0  0
    0.7500   -1.2990    0.0000 C   0  0  0  0  0  0  0  0  0  0  0  0
    1.5000    0.0000    0.0000 C   0  0  0  0  0  0  0  0  0  0  0  0
    0.7500    1.2990    0.0000 C   0  0  0  0  0  0  0  0  0  0  0  0
    1.5000    2.5981    0.0000 O   0  0  0  0  0  0  0  0  0  0  0  0
   -0.7500    1.2990    0.0000 C   0  0  0  0  0  0  0  0  0  0  0  0
   -1.5000    0.0000    0.0000 C   0  0  0  0  0  0  0  0  0  0  0  0
   -0.7500   -1.2990    0.0000 C   0  0  0  0  0  0  0  0  0  0  0  0
   -2.2500   -1.2990    0.0000 C   0  0  0  0  0  0  0  0  0  0  0  0
   -1.5000   -2.5981    0.0000 C   0  0  0  0  0  0  0  0  0  0  0  0
   -3.0000   -2.5981    0.0000 C   0  0  0  0  0  0  0  0  0  0  0  0
   -3.7500   -3.8971    0.0000 C   0  0  0  0  0  0  0  0  0  0  0  0
   -3.0000   -5.1962    0.0000 C   0  0  0  0  0  0  0  0  0  0  0  0
   -4.4918   -5.3529    0.0000 C   0  0  0  0  0  0  0  0  0  0  0  0
   -3.4635   -6.6227    0.0000 C   0  0  0  0  0  0  0  0  0  0  0  0
   -4.8901   -7.0863    0.0000 O   0  0  0  0  0  0  0  0  0  0  0  0
   -2.2500   -7.5044    0.0000 C   0  0  0  0  0  0  0  0  0  0  0  0
   -1.0365   -6.6227    0.0000 C   0  0  0  0  0  0  0  0  0  0  0  0
   -1.5000   -5.1962    0.0000 C   0  0  0  0  0  0  0  0  0  0  0  0
   -0.7500   -3.8971    0.0000 C   0  0  0  0  0  0  0  0  0  0  0  0
  1  2  1  0
  2  3  1  0
  2  4  1  0
  4  5  2  0
  4  6  1  0
  6  7  1  0
  7  8  1  0
  8  9  1  0
  9 10  1  0
 10 11  1  0
 11 12  1  0
 12 13  1  0
 13 14  1  0
 15 14  1  6
 15 16  1  0
 16 17  1  0
 17 18  2  0
 17 19  1  0
 19 20  1  0
 20 21  1  0
 21 22  1  6
 21 23  1  0
 23 24  1  6
 24 25  1  0
 25 26  1  0
 26 27  1  6
 26 28  1  0
 28 29  1  6
 28 30  1  0
 30 31  1  0
 32 31  1  6
 32 33  1  0
 33 13  1  1
 21 15  1  0
 33 23  1  0
 32 26  1  0
M  END
>  <assay_chembl_id>  (110) 
CHEMBL914604

>  <assay_description>  (110) 
Displacement of [3H]mibolerone from androgen receptor expressed in CHOK1 cells

>  <parent_molecule_chembl_id>  (110) 
CHEMBL389277

>  <canonical_smiles>  (110) 
CN(C)C(=O)CCCCCCCC1C[C@H]2CC(=O)CC[C@]2(C)[C@H]2CC[C@]3(C)[C@@H](O)CC[C@H]3[C@H]12

>  <standard_type>  (110) 
IC50

>  <standard_relation>  (110) 
=

>  <standard_value>  (110) 
260.0

>  <standard_units>  (110) 
nM

>  <target_pref_name>  (110) 
Androgen Receptor

>  <target_chembl_id>  (110) 
CHEMBL1871

>  <target_organism>  (110) 
Homo sapiens

>  <pchembl_median>  (110) 
7.33

$$$$
CHEMBL390071
     RDKit          2D

 34 37  0  0  0  0  0  0  0  0999 V2000
   10.5000  -12.9904    0.0000 C   0  0  0  0  0  0  0  0  0  0  0  0
    9.7500  -11.6913    0.0000 C   0  0  0  0  0  0  0  0  0  0  0  0
   10.5000  -10.3923    0.0000 N   0  0  0  0  0  0  0  0  0  0  0  0
   12.0000  -10.3923    0.0000 C   0  0  0  0  0  0  0  0  0  0  0  0
    9.7500   -9.0933    0.0000 C   0  0  0  0  0  0  0  0  0  0  0  0
   10.5000   -7.7942    0.0000 O   0  0  0  0  0  0  0  0  0  0  0  0
    8.2500   -9.0933    0.0000 C   0  0  0  0  0  0  0  0  0  0  0  0
    7.5000   -7.7942    0.0000 C   0  0  0  0  0  0  0  0  0  0  0  0
    6.0000   -7.7942    0.0000 C   0  0  0  0  0  0  0  0  0  0  0  0
    5.2500   -6.4952    0.0000 C   0  0  0  0  0  0  0  0  0  0  0  0
    3.7500   -6.4952    0.0000 C   0  0  0  0  0  0  0  0  0  0  0  0
    3.0000   -5.1962    0.0000 C   0  0  0  0  0  0  0  0  0  0  0  0
    1.5000   -5.1962    0.0000 C   0  0  0  0  0  0  0  0  0  0  0  0
    0.7500   -3.8971    0.0000 C   0  0  0  0  0  0  0  0  0  0  0  0
    1.5000   -2.5981    0.0000 C   0  0  0  0  0  0  0  0  0  0  0  0
    0.7500   -1.2990    0.0000 C   0  0  0  0  0  0  0  0  0  0  0  0
    1.5000    0.0000    0.0000 C   0  0  0  0  0  0  0  0  0  0  0  0
    0.7500    1.2990    0.0000 C   0  0  0  0  0  0  0  0  0  0  0  0
    1.5000    2.5981    0.0000 O   0  0  0  0  0  0  0  0  0  0  0  0
   -0.7500    1.2990    0.0000 C   0  0  0  0  0  0  0  0  0  0  0  0
   -1.5000    0.0000    0.0000 C   0  0  0  0  0  0  0  0  0  0  0  0
   -0.7500   -1.2990    0.0000 C   0  0  0  0  0  0  0  0  0  0  0  0
   -2.2500   -1.2990    0.0000 C   0  0  0  0  0  0  0  0  0  0  0  0
   -1.5000   -2.5981    0.0000 C   0  0  0  0  0  0  0  0  0  0  0  0
   -3.0000   -2.5981    0.0000 C   0  0  0  0  0  0  0  0  0  0  0  0
   -3.7500   -3.8971    0.0000 C   0  0  0  0  0  0  0  0  0  0  0  0
   -3.0000   -5.1962    0.0000 C   0  0  0  0  0  0  0  0  0  0  0  0
   -4.4918   -5.3529    0.0000 C   0  0  0  0  0  0  0  0  0  0  0  0
   -3.4635   -6.6227    0.0000 C   0  0  0  0  0  0  0  0  0  0  0  0
   -4.8901   -7.0863    0.0000 O   0  0  0  0  0  0  0  0  0  0  0  0
   -2.2500   -7.5044    0.0000 C   0  0  0  0  0  0  0  0  0  0  0  0
   -1.0365   -6.6227    0.0000 C   0  0  0  0  0  0  0  0  0  0  0  0
   -1.5000   -5.1962    0.0000 C   0  0  0  0  0  0  0  0  0  0  0  0
   -0.7500   -3.8971    0.0000 C   0  0  0  0  0  0  0  0  0  0  0  0
  1  2  1  0
  2  3  1  0
  3  4  1  0
  3  5  1  0
  5  6  2  0
  5  7  1  0
  7  8  1  0
  8  9  1  0
  9 10  1  0
 10 11  1  0
 11 12  1  0
 12 13  1  0
 13 14  1  0
 14 15  1  0
 16 15  1  6
 16 17  1  0
 17 18  1  0
 18 19  2  0
 18 20  1  0
 20 21  1  0
 21 22  1  0
 22 23  1  6
 22 24  1  0
 24 25  1  6
 25 26  1  0
 26 27  1  0
 27 28  1  6
 27 29  1  0
 29 30  1  6
 29 31  1  0
 31 32  1  0
 33 32  1  6
 33 34  1  0
 34 14  1  1
 22 16  1  0
 34 24  1  0
 33 27  1  0
M  END
>  <assay_chembl_id>  (111) 
CHEMBL914604

>  <assay_description>  (111) 
Displacement of [3H]mibolerone from androgen receptor expressed in CHOK1 cells

>  <parent_molecule_chembl_id>  (111) 
CHEMBL390071

>  <canonical_smiles>  (111) 
CCN(C)C(=O)CCCCCCCC1C[C@H]2CC(=O)CC[C@]2(C)[C@H]2CC[C@]3(C)[C@@H](O)CC[C@H]3[C@H]12

>  <standard_type>  (111) 
IC50

>  <standard_relation>  (111) 
=

>  <standard_value>  (111) 
660.0

>  <standard_units>  (111) 
nM

>  <target_pref_name>  (111) 
Androgen Receptor

>  <target_chembl_id>  (111) 
CHEMBL1871

>  <target_organism>  (111) 
Homo sapiens

>  <pchembl_median>  (111) 
6.49

$$$$
CHEMBL224414
     RDKit          2D

 35 38  0  0  0  0  0  0  0  0999 V2000
   10.5000  -12.9904    0.0000 C   0  0  0  0  0  0  0  0  0  0  0  0
    9.7500  -11.6913    0.0000 C   0  0  0  0  0  0  0  0  0  0  0  0
    8.2500  -11.6913    0.0000 C   0  0  0  0  0  0  0  0  0  0  0  0
   10.5000  -10.3923    0.0000 N   0  0  0  0  0  0  0  0  0  0  0  0
   12.0000  -10.3923    0.0000 C   0  0  0  0  0  0  0  0  0  0  0  0
    9.7500   -9.0933    0.0000 C   0  0  0  0  0  0  0  0  0  0  0  0
   10.5000   -7.7942    0.0000 O   0  0  0  0  0  0  0  0  0  0  0  0
    8.2500   -9.0933    0.0000 C   0  0  0  0  0  0  0  0  0  0  0  0
    7.5000   -7.7942    0.0000 C   0  0  0  0  0  0  0  0  0  0  0  0
    6.0000   -7.7942    0.0000 C   0  0  0  0  0  0  0  0  0  0  0  0
    5.2500   -6.4952    0.0000 C   0  0  0  0  0  0  0  0  0  0  0  0
    3.7500   -6.4952    0.0000 C   0  0  0  0  0  0  0  0  0  0  0  0
    3.0000   -5.1962    0.0000 C   0  0  0  0  0  0  0  0  0  0  0  0
    1.5000   -5.1962    0.0000 C   0  0  0  0  0  0  0  0  0  0  0  0
    0.7500   -3.8971    0.0000 C   0  0  0  0  0  0  0  0  0  0  0  0
    1.5000   -2.5981    0.0000 C   0  0  0  0  0  0  0  0  0  0  0  0
    0.7500   -1.2990    0.0000 C   0  0  0  0  0  0  0  0  0  0  0  0
    1.5000    0.0000    0.0000 C   0  0  0  0  0  0  0  0  0  0  0  0
    0.7500    1.2990    0.0000 C   0  0  0  0  0  0  0  0  0  0  0  0
    1.5000    2.5981    0.0000 O   0  0  0  0  0  0  0  0  0  0  0  0
   -0.7500    1.2990    0.0000 C   0  0  0  0  0  0  0  0  0  0  0  0
   -1.5000    0.0000    0.0000 C   0  0  0  0  0  0  0  0  0  0  0  0
   -0.7500   -1.2990    0.0000 C   0  0  0  0  0  0  0  0  0  0  0  0
   -2.2500   -1.2990    0.0000 C   0  0  0  0  0  0  0  0  0  0  0  0
   -1.5000   -2.5981    0.0000 C   0  0  0  0  0  0  0  0  0  0  0  0
   -3.0000   -2.5981    0.0000 C   0  0  0  0  0  0  0  0  0  0  0  0
   -3.7500   -3.8971    0.0000 C   0  0  0  0  0  0  0  0  0  0  0  0
   -3.0000   -5.1962    0.0000 C   0  0  0  0  0  0  0  0  0  0  0  0
   -4.4918   -5.3529    0.0000 C   0  0  0  0  0  0  0  0  0  0  0  0
   -3.4635   -6.6227    0.0000 C   0  0  0  0  0  0  0  0  0  0  0  0
   -4.8901   -7.0863    0.0000 O   0  0  0  0  0  0  0  0  0  0  0  0
   -2.2500   -7.5044    0.0000 C   0  0  0  0  0  0  0  0  0  0  0  0
   -1.0365   -6.6227    0.0000 C   0  0  0  0  0  0  0  0  0  0  0  0
   -1.5000   -5.1962    0.0000 C   0  0  0  0  0  0  0  0  0  0  0  0
   -0.7500   -3.8971    0.0000 C   0  0  0  0  0  0  0  0  0  0  0  0
  1  2  1  0
  2  3  1  0
  2  4  1  0
  4  5  1  0
  4  6  1  0
  6  7  2  0
  6  8  1  0
  8  9  1  0
  9 10  1  0
 10 11  1  0
 11 12  1  0
 12 13  1  0
 13 14  1  0
 14 15  1  0
 15 16  1  0
 17 16  1  6
 17 18  1  0
 18 19  1  0
 19 20  2  0
 19 21  1  0
 21 22  1  0
 22 23  1  0
 23 24  1  6
 23 25  1  0
 25 26  1  6
 26 27  1  0
 27 28  1  0
 28 29  1  6
 28 30  1  0
 30 31  1  6
 30 32  1  0
 32 33  1  0
 34 33  1  6
 34 35  1  0
 35 15  1  1
 23 17  1  0
 35 25  1  0
 34 28  1  0
M  END
>  <assay_chembl_id>  (112) 
CHEMBL914604

>  <assay_description>  (112) 
Displacement of [3H]mibolerone from androgen receptor expressed in CHOK1 cells

>  <parent_molecule_chembl_id>  (112) 
CHEMBL224414

>  <canonical_smiles>  (112) 
CC(C)N(C)C(=O)CCCCCCCC1C[C@H]2CC(=O)CC[C@]2(C)[C@H]2CC[C@]3(C)[C@@H](O)CC[C@H]3[C@H]12

>  <standard_type>  (112) 
IC50

>  <standard_relation>  (112) 
=

>  <standard_value>  (112) 
430.0

>  <standard_units>  (112) 
nM

>  <target_pref_name>  (112) 
Androgen Receptor

>  <target_chembl_id>  (112) 
CHEMBL1871

>  <target_organism>  (112) 
Homo sapiens

>  <pchembl_median>  (112) 
7.24

$$$$
CHEMBL375282
     RDKit          2D

 35 38  0  0  0  0  0  0  0  0999 V2000
    9.7500  -14.2894    0.0000 C   0  0  0  0  0  0  0  0  0  0  0  0
   10.5000  -12.9904    0.0000 C   0  0  0  0  0  0  0  0  0  0  0  0
    9.7500  -11.6913    0.0000 C   0  0  0  0  0  0  0  0  0  0  0  0
   10.5000  -10.3923    0.0000 N   0  0  0  0  0  0  0  0  0  0  0  0
   12.0000  -10.3923    0.0000 C   0  0  0  0  0  0  0  0  0  0  0  0
    9.7500   -9.0933    0.0000 C   0  0  0  0  0  0  0  0  0  0  0  0
   10.5000   -7.7942    0.0000 O   0  0  0  0  0  0  0  0  0  0  0  0
    8.2500   -9.0933    0.0000 C   0  0  0  0  0  0  0  0  0  0  0  0
    7.5000   -7.7942    0.0000 C   0  0  0  0  0  0  0  0  0  0  0  0
    6.0000   -7.7942    0.0000 C   0  0  0  0  0  0  0  0  0  0  0  0
    5.2500   -6.4952    0.0000 C   0  0  0  0  0  0  0  0  0  0  0  0
    3.7500   -6.4952    0.0000 C   0  0  0  0  0  0  0  0  0  0  0  0
    3.0000   -5.1962    0.0000 C   0  0  0  0  0  0  0  0  0  0  0  0
    1.5000   -5.1962    0.0000 C   0  0  0  0  0  0  0  0  0  0  0  0
    0.7500   -3.8971    0.0000 C   0  0  0  0  0  0  0  0  0  0  0  0
    1.5000   -2.5981    0.0000 C   0  0  0  0  0  0  0  0  0  0  0  0
    0.7500   -1.2990    0.0000 C   0  0  0  0  0  0  0  0  0  0  0  0
    1.5000    0.0000    0.0000 C   0  0  0  0  0  0  0  0  0  0  0  0
    0.7500    1.2990    0.0000 C   0  0  0  0  0  0  0  0  0  0  0  0
    1.5000    2.5981    0.0000 O   0  0  0  0  0  0  0  0  0  0  0  0
   -0.7500    1.2990    0.0000 C   0  0  0  0  0  0  0  0  0  0  0  0
   -1.5000    0.0000    0.0000 C   0  0  0  0  0  0  0  0  0  0  0  0
   -0.7500   -1.2990    0.0000 C   0  0  0  0  0  0  0  0  0  0  0  0
   -2.2500   -1.2990    0.0000 C   0  0  0  0  0  0  0  0  0  0  0  0
   -1.5000   -2.5981    0.0000 C   0  0  0  0  0  0  0  0  0  0  0  0
   -3.0000   -2.5981    0.0000 C   0  0  0  0  0  0  0  0  0  0  0  0
   -3.7500   -3.8971    0.0000 C   0  0  0  0  0  0  0  0  0  0  0  0
   -3.0000   -5.1962    0.0000 C   0  0  0  0  0  0  0  0  0  0  0  0
   -4.4918   -5.3529    0.0000 C   0  0  0  0  0  0  0  0  0  0  0  0
   -3.4635   -6.6227    0.0000 C   0  0  0  0  0  0  0  0  0  0  0  0
   -4.8901   -7.0863    0.0000 O   0  0  0  0  0  0  0  0  0  0  0  0
   -2.2500   -7.5044    0.0000 C   0  0  0  0  0  0  0  0  0  0  0  0
   -1.0365   -6.6227    0.0000 C   0  0  0  0  0  0  0  0  0  0  0  0
   -1.5000   -5.1962    0.0000 C   0  0  0  0  0  0  0  0  0  0  0  0
   -0.7500   -3.8971    0.0000 C   0  0  0  0  0  0  0  0  0  0  0  0
  1  2  1  0
  2  3  1  0
  3  4  1  0
  4  5  1  0
  4  6  1  0
  6  7  2  0
  6  8  1  0
  8  9  1  0
  9 10  1  0
 10 11  1  0
 11 12  1  0
 12 13  1  0
 13 14  1  0
 14 15  1  0
 15 16  1  0
 17 16  1  6
 17 18  1  0
 18 19  1  0
 19 20  2  0
 19 21  1  0
 21 22  1  0
 22 23  1  0
 23 24  1  6
 23 25  1  0
 25 26  1  6
 26 27  1  0
 27 28  1  0
 28 29  1  6
 28 30  1  0
 30 31  1  6
 30 32  1  0
 32 33  1  0
 34 33  1  6
 34 35  1  0
 35 15  1  1
 23 17  1  0
 35 25  1  0
 34 28  1  0
M  END
>  <assay_chembl_id>  (113) 
CHEMBL914604

>  <assay_description>  (113) 
Displacement of [3H]mibolerone from androgen receptor expressed in CHOK1 cells

>  <parent_molecule_chembl_id>  (113) 
CHEMBL375282

>  <canonical_smiles>  (113) 
CCCN(C)C(=O)CCCCCCCC1C[C@H]2CC(=O)CC[C@]2(C)[C@H]2CC[C@]3(C)[C@@H](O)CC[C@H]3[C@H]12

>  <standard_type>  (113) 
IC50

>  <standard_relation>  (113) 
=

>  <standard_value>  (113) 
300.0

>  <standard_units>  (113) 
nM

>  <target_pref_name>  (113) 
Androgen Receptor

>  <target_chembl_id>  (113) 
CHEMBL1871

>  <target_organism>  (113) 
Homo sapiens

>  <pchembl_median>  (113) 
7.035

$$$$
CHEMBL224770
     RDKit          2D

 36 39  0  0  0  0  0  0  0  0999 V2000
   10.5000  -15.5885    0.0000 C   0  0  0  0  0  0  0  0  0  0  0  0
    9.7500  -14.2894    0.0000 C   0  0  0  0  0  0  0  0  0  0  0  0
   10.5000  -12.9904    0.0000 C   0  0  0  0  0  0  0  0  0  0  0  0
    9.7500  -11.6913    0.0000 C   0  0  0  0  0  0  0  0  0  0  0  0
   10.5000  -10.3923    0.0000 N   0  0  0  0  0  0  0  0  0  0  0  0
   12.0000  -10.3923    0.0000 C   0  0  0  0  0  0  0  0  0  0  0  0
    9.7500   -9.0933    0.0000 C   0  0  0  0  0  0  0  0  0  0  0  0
   10.5000   -7.7942    0.0000 O   0  0  0  0  0  0  0  0  0  0  0  0
    8.2500   -9.0933    0.0000 C   0  0  0  0  0  0  0  0  0  0  0  0
    7.5000   -7.7942    0.0000 C   0  0  0  0  0  0  0  0  0  0  0  0
    6.0000   -7.7942    0.0000 C   0  0  0  0  0  0  0  0  0  0  0  0
    5.2500   -6.4952    0.0000 C   0  0  0  0  0  0  0  0  0  0  0  0
    3.7500   -6.4952    0.0000 C   0  0  0  0  0  0  0  0  0  0  0  0
    3.0000   -5.1962    0.0000 C   0  0  0  0  0  0  0  0  0  0  0  0
    1.5000   -5.1962    0.0000 C   0  0  0  0  0  0  0  0  0  0  0  0
    0.7500   -3.8971    0.0000 C   0  0  0  0  0  0  0  0  0  0  0  0
    1.5000   -2.5981    0.0000 C   0  0  0  0  0  0  0  0  0  0  0  0
    0.7500   -1.2990    0.0000 C   0  0  0  0  0  0  0  0  0  0  0  0
    1.5000    0.0000    0.0000 C   0  0  0  0  0  0  0  0  0  0  0  0
    0.7500    1.2990    0.0000 C   0  0  0  0  0  0  0  0  0  0  0  0
    1.5000    2.5981    0.0000 O   0  0  0  0  0  0  0  0  0  0  0  0
   -0.7500    1.2990    0.0000 C   0  0  0  0  0  0  0  0  0  0  0  0
   -1.5000    0.0000    0.0000 C   0  0  0  0  0  0  0  0  0  0  0  0
   -0.7500   -1.2990    0.0000 C   0  0  0  0  0  0  0  0  0  0  0  0
   -2.2500   -1.2990    0.0000 C   0  0  0  0  0  0  0  0  0  0  0  0
   -1.5000   -2.5981    0.0000 C   0  0  0  0  0  0  0  0  0  0  0  0
   -3.0000   -2.5981    0.0000 C   0  0  0  0  0  0  0  0  0  0  0  0
   -3.7500   -3.8971    0.0000 C   0  0  0  0  0  0  0  0  0  0  0  0
   -3.0000   -5.1962    0.0000 C   0  0  0  0  0  0  0  0  0  0  0  0
   -4.4918   -5.3529    0.0000 C   0  0  0  0  0  0  0  0  0  0  0  0
   -3.4635   -6.6227    0.0000 C   0  0  0  0  0  0  0  0  0  0  0  0
   -4.8901   -7.0863    0.0000 O   0  0  0  0  0  0  0  0  0  0  0  0
   -2.2500   -7.5044    0.0000 C   0  0  0  0  0  0  0  0  0  0  0  0
   -1.0365   -6.6227    0.0000 C   0  0  0  0  0  0  0  0  0  0  0  0
   -1.5000   -5.1962    0.0000 C   0  0  0  0  0  0  0  0  0  0  0  0
   -0.7500   -3.8971    0.0000 C   0  0  0  0  0  0  0  0  0  0  0  0
  1  2  1  0
  2  3  1  0
  3  4  1  0
  4  5  1  0
  5  6  1  0
  5  7  1  0
  7  8  2  0
  7  9  1  0
  9 10  1  0
 10 11  1  0
 11 12  1  0
 12 13  1  0
 13 14  1  0
 14 15  1  0
 15 16  1  0
 16 17  1  0
 18 17  1  6
 18 19  1  0
 19 20  1  0
 20 21  2  0
 20 22  1  0
 22 23  1  0
 23 24  1  0
 24 25  1  6
 24 26  1  0
 26 27  1  6
 27 28  1  0
 28 29  1  0
 29 30  1  6
 29 31  1  0
 31 32  1  6
 31 33  1  0
 33 34  1  0
 35 34  1  6
 35 36  1  0
 36 16  1  1
 24 18  1  0
 36 26  1  0
 35 29  1  0
M  END
>  <assay_chembl_id>  (114) 
CHEMBL914604

>  <assay_description>  (114) 
Displacement of [3H]mibolerone from androgen receptor expressed in CHOK1 cells

>  <parent_molecule_chembl_id>  (114) 
CHEMBL224770

>  <canonical_smiles>  (114) 
CCCCN(C)C(=O)CCCCCCCC1C[C@H]2CC(=O)CC[C@]2(C)[C@H]2CC[C@]3(C)[C@@H](O)CC[C@H]3[C@H]12

>  <standard_type>  (114) 
IC50

>  <standard_relation>  (114) 
=

>  <standard_value>  (114) 
280.0

>  <standard_units>  (114) 
nM

>  <target_pref_name>  (114) 
Androgen Receptor

>  <target_chembl_id>  (114) 
CHEMBL1871

>  <target_organism>  (114) 
Homo sapiens

>  <pchembl_median>  (114) 
5.39

$$$$
CHEMBL373460
     RDKit          2D

 40 43  0  0  0  0  0  0  0  0999 V2000
   15.0000  -18.1865    0.0000 C   0  0  0  0  0  0  0  0  0  0  0  0
   14.2500  -16.8875    0.0000 C   0  0  0  0  0  0  0  0  0  0  0  0
   15.0000  -15.5885    0.0000 C   0  0  0  0  0  0  0  0  0  0  0  0
   14.2500  -14.2894    0.0000 C   0  0  0  0  0  0  0  0  0  0  0  0
   15.0000  -12.9904    0.0000 N   0  0  0  0  0  0  0  0  0  0  0  0
   16.5000  -12.9904    0.0000 C   0  0  0  0  0  0  0  0  0  0  0  0
   14.2500  -11.6913    0.0000 C   0  0  0  0  0  0  0  0  0  0  0  0
   15.0000  -10.3923    0.0000 O   0  0  0  0  0  0  0  0  0  0  0  0
   12.7500  -11.6913    0.0000 C   0  0  0  0  0  0  0  0  0  0  0  0
   12.0000  -10.3923    0.0000 C   0  0  0  0  0  0  0  0  0  0  0  0
   10.5000  -10.3923    0.0000 C   0  0  0  0  0  0  0  0  0  0  0  0
    9.7500   -9.0933    0.0000 C   0  0  0  0  0  0  0  0  0  0  0  0
    8.2500   -9.0933    0.0000 C   0  0  0  0  0  0  0  0  0  0  0  0
    7.5000   -7.7942    0.0000 C   0  0  0  0  0  0  0  0  0  0  0  0
    6.0000   -7.7942    0.0000 C   0  0  0  0  0  0  0  0  0  0  0  0
    5.2500   -6.4952    0.0000 C   0  0  0  0  0  0  0  0  0  0  0  0
    3.7500   -6.4952    0.0000 C   0  0  0  0  0  0  0  0  0  0  0  0
    3.0000   -5.1962    0.0000 C   0  0  0  0  0  0  0  0  0  0  0  0
    1.5000   -5.1962    0.0000 C   0  0  0  0  0  0  0  0  0  0  0  0
    0.7500   -3.8971    0.0000 C   0  0  0  0  0  0  0  0  0  0  0  0
    1.5000   -2.5981    0.0000 C   0  0  0  0  0  0  0  0  0  0  0  0
    0.7500   -1.2990    0.0000 C   0  0  0  0  0  0  0  0  0  0  0  0
    1.5000    0.0000    0.0000 C   0  0  0  0  0  0  0  0  0  0  0  0
    0.7500    1.2990    0.0000 C   0  0  0  0  0  0  0  0  0  0  0  0
    1.5000    2.5981    0.0000 O   0  0  0  0  0  0  0  0  0  0  0  0
   -0.7500    1.2990    0.0000 C   0  0  0  0  0  0  0  0  0  0  0  0
   -1.5000    0.0000    0.0000 C   0  0  0  0  0  0  0  0  0  0  0  0
   -0.7500   -1.2990    0.0000 C   0  0  0  0  0  0  0  0  0  0  0  0
   -2.2500   -1.2990    0.0000 C   0  0  0  0  0  0  0  0  0  0  0  0
   -1.5000   -2.5981    0.0000 C   0  0  0  0  0  0  0  0  0  0  0  0
   -3.0000   -2.5981    0.0000 C   0  0  0  0  0  0  0  0  0  0  0  0
   -3.7500   -3.8971    0.0000 C   0  0  0  0  0  0  0  0  0  0  0  0
   -3.0000   -5.1962    0.0000 C   0  0  0  0  0  0  0  0  0  0  0  0
   -4.4918   -5.3529    0.0000 C   0  0  0  0  0  0  0  0  0  0  0  0
   -3.4635   -6.6227    0.0000 C   0  0  0  0  0  0  0  0  0  0  0  0
   -4.8901   -7.0863    0.0000 O   0  0  0  0  0  0  0  0  0  0  0  0
   -2.2500   -7.5044    0.0000 C   0  0  0  0  0  0  0  0  0  0  0  0
   -1.0365   -6.6227    0.0000 C   0  0  0  0  0  0  0  0  0  0  0  0
   -1.5000   -5.1962    0.0000 C   0  0  0  0  0  0  0  0  0  0  0  0
   -0.7500   -3.8971    0.0000 C   0  0  0  0  0  0  0  0  0  0  0  0
  1  2  1  0
  2  3  1  0
  3  4  1  0
  4  5  1  0
  5  6  1  0
  5  7  1  0
  7  8  2  0
  7  9  1  0
  9 10  1  0
 10 11  1  0
 11 12  1  0
 12 13  1  0
 13 14  1  0
 14 15  1  0
 15 16  1  0
 16 17  1  0
 17 18  1  0
 18 19  1  0
 20 19  1  1
 20 21  1  0
 21 22  1  0
 22 23  1  0
 23 24  1  0
 24 25  2  0
 24 26  1  0
 26 27  1  0
 27 28  1  0
 28 29  1  6
 28 30  1  0
 30 31  1  6
 31 32  1  0
 32 33  1  0
 33 34  1  6
 33 35  1  0
 35 36  1  6
 35 37  1  0
 37 38  1  0
 39 38  1  6
 39 40  1  0
 40 20  1  1
 28 22  1  0
 40 30  1  0
 39 33  1  0
M  END
>  <assay_chembl_id>  (115) 
CHEMBL914604

>  <assay_description>  (115) 
Displacement of [3H]mibolerone from androgen receptor expressed in CHOK1 cells

>  <parent_molecule_chembl_id>  (115) 
CHEMBL373460

>  <canonical_smiles>  (115) 
CCCCN(C)C(=O)CCCCCCCCCCC[C@@H]1CC2CC(=O)CC[C@]2(C)[C@H]2CC[C@]3(C)[C@@H](O)CC[C@H]3[C@@H]21

>  <standard_type>  (115) 
IC50

>  <standard_relation>  (115) 
=

>  <standard_value>  (115) 
9900.0

>  <standard_units>  (115) 
nM

>  <target_pref_name>  (115) 
Androgen Receptor

>  <target_chembl_id>  (115) 
CHEMBL1871

>  <target_organism>  (115) 
Homo sapiens

>  <pchembl_median>  (115) 
5.0

$$$$
CHEMBL375675
     RDKit          2D

 39 42  0  0  0  0  0  0  0  0999 V2000
   18.7500   -9.0933    0.0000 C   0  0  0  0  0  0  0  0  0  0  0  0
   17.2500   -9.0933    0.0000 C   0  0  0  0  0  0  0  0  0  0  0  0
   16.5000  -10.3923    0.0000 C   0  0  0  0  0  0  0  0  0  0  0  0
   15.0000  -10.3923    0.0000 C   0  0  0  0  0  0  0  0  0  0  0  0
   14.2500  -11.6913    0.0000 N   0  0  0  0  0  0  0  0  0  0  0  0
   15.0000  -12.9904    0.0000 C   0  0  0  0  0  0  0  0  0  0  0  0
   12.7500  -11.6913    0.0000 C   0  0  0  0  0  0  0  0  0  0  0  0
   12.0000  -12.9904    0.0000 O   0  0  0  0  0  0  0  0  0  0  0  0
   12.0000  -10.3923    0.0000 C   0  0  0  0  0  0  0  0  0  0  0  0
   10.5000  -10.3923    0.0000 C   0  0  0  0  0  0  0  0  0  0  0  0
    9.7500   -9.0933    0.0000 C   0  0  0  0  0  0  0  0  0  0  0  0
    8.2500   -9.0933    0.0000 C   0  0  0  0  0  0  0  0  0  0  0  0
    7.5000   -7.7942    0.0000 C   0  0  0  0  0  0  0  0  0  0  0  0
    6.0000   -7.7942    0.0000 C   0  0  0  0  0  0  0  0  0  0  0  0
    5.2500   -6.4952    0.0000 C   0  0  0  0  0  0  0  0  0  0  0  0
    3.7500   -6.4952    0.0000 C   0  0  0  0  0  0  0  0  0  0  0  0
    3.0000   -5.1962    0.0000 C   0  0  0  0  0  0  0  0  0  0  0  0
    1.5000   -5.1962    0.0000 C   0  0  0  0  0  0  0  0  0  0  0  0
    0.7500   -3.8971    0.0000 C   0  0  0  0  0  0  0  0  0  0  0  0
    1.5000   -2.5981    0.0000 C   0  0  0  0  0  0  0  0  0  0  0  0
    0.7500   -1.2990    0.0000 C   0  0  0  0  0  0  0  0  0  0  0  0
    1.5000    0.0000    0.0000 C   0  0  0  0  0  0  0  0  0  0  0  0
    0.7500    1.2990    0.0000 C   0  0  0  0  0  0  0  0  0  0  0  0
    1.5000    2.5981    0.0000 O   0  0  0  0  0  0  0  0  0  0  0  0
   -0.7500    1.2990    0.0000 C   0  0  0  0  0  0  0  0  0  0  0  0
   -1.5000    0.0000    0.0000 C   0  0  0  0  0  0  0  0  0  0  0  0
   -0.7500   -1.2990    0.0000 C   0  0  0  0  0  0  0  0  0  0  0  0
   -2.2500   -1.2990    0.0000 C   0  0  0  0  0  0  0  0  0  0  0  0
   -1.5000   -2.5981    0.0000 C   0  0  0  0  0  0  0  0  0  0  0  0
   -3.0000   -2.5981    0.0000 C   0  0  0  0  0  0  0  0  0  0  0  0
   -3.7500   -3.8971    0.0000 C   0  0  0  0  0  0  0  0  0  0  0  0
   -3.0000   -5.1962    0.0000 C   0  0  0  0  0  0  0  0  0  0  0  0
   -4.4918   -5.3529    0.0000 C   0  0  0  0  0  0  0  0  0  0  0  0
   -3.4635   -6.6227    0.0000 C   0  0  0  0  0  0  0  0  0  0  0  0
   -4.8901   -7.0863    0.0000 O   0  0  0  0  0  0  0  0  0  0  0  0
   -2.2500   -7.5044    0.0000 C   0  0  0  0  0  0  0  0  0  0  0  0
   -1.0365   -6.6227    0.0000 C   0  0  0  0  0  0  0  0  0  0  0  0
   -1.5000   -5.1962    0.0000 C   0  0  0  0  0  0  0  0  0  0  0  0
   -0.7500   -3.8971    0.0000 C   0  0  0  0  0  0  0  0  0  0  0  0
  1  2  1  0
  2  3  1  0
  3  4  1  0
  4  5  1  0
  5  6  1  0
  5  7  1  0
  7  8  2  0
  7  9  1  0
  9 10  1  0
 10 11  1  0
 11 12  1  0
 12 13  1  0
 13 14  1  0
 14 15  1  0
 15 16  1  0
 16 17  1  0
 17 18  1  0
 19 18  1  1
 19 20  1  0
 20 21  1  0
 21 22  1  0
 22 23  1  0
 23 24  2  0
 23 25  1  0
 25 26  1  0
 26 27  1  0
 27 28  1  6
 27 29  1  0
 29 30  1  6
 30 31  1  0
 31 32  1  0
 32 33  1  6
 32 34  1  0
 34 35  1  6
 34 36  1  0
 36 37  1  0
 38 37  1  6
 38 39  1  0
 39 19  1  1
 27 21  1  0
 39 29  1  0
 38 32  1  0
M  END
>  <assay_chembl_id>  (116) 
CHEMBL914604

>  <assay_description>  (116) 
Displacement of [3H]mibolerone from androgen receptor expressed in CHOK1 cells

>  <parent_molecule_chembl_id>  (116) 
CHEMBL375675

>  <canonical_smiles>  (116) 
CCCCN(C)C(=O)CCCCCCCCCC[C@@H]1CC2CC(=O)CC[C@]2(C)[C@H]2CC[C@]3(C)[C@@H](O)CC[C@H]3[C@@H]21

>  <standard_type>  (116) 
IC50

>  <standard_relation>  (116) 
=

>  <standard_value>  (116) 
1900.0

>  <standard_units>  (116) 
nM

>  <target_pref_name>  (116) 
Androgen Receptor

>  <target_chembl_id>  (116) 
CHEMBL1871

>  <target_organism>  (116) 
Homo sapiens

>  <pchembl_median>  (116) 
5.01

$$$$
CHEMBL224779
     RDKit          2D

 38 41  0  0  0  0  0  0  0  0999 V2000
   12.7500  -16.8875    0.0000 C   0  0  0  0  0  0  0  0  0  0  0  0
   12.0000  -15.5885    0.0000 C   0  0  0  0  0  0  0  0  0  0  0  0
   12.7500  -14.2894    0.0000 C   0  0  0  0  0  0  0  0  0  0  0  0
   12.0000  -12.9904    0.0000 C   0  0  0  0  0  0  0  0  0  0  0  0
   12.7500  -11.6913    0.0000 N   0  0  0  0  0  0  0  0  0  0  0  0
   14.2500  -11.6913    0.0000 C   0  0  0  0  0  0  0  0  0  0  0  0
   12.0000  -10.3923    0.0000 C   0  0  0  0  0  0  0  0  0  0  0  0
   12.7500   -9.0933    0.0000 O   0  0  0  0  0  0  0  0  0  0  0  0
   10.5000  -10.3923    0.0000 C   0  0  0  0  0  0  0  0  0  0  0  0
    9.7500   -9.0933    0.0000 C   0  0  0  0  0  0  0  0  0  0  0  0
    8.2500   -9.0933    0.0000 C   0  0  0  0  0  0  0  0  0  0  0  0
    7.5000   -7.7942    0.0000 C   0  0  0  0  0  0  0  0  0  0  0  0
    6.0000   -7.7942    0.0000 C   0  0  0  0  0  0  0  0  0  0  0  0
    5.2500   -6.4952    0.0000 C   0  0  0  0  0  0  0  0  0  0  0  0
    3.7500   -6.4952    0.0000 C   0  0  0  0  0  0  0  0  0  0  0  0
    3.0000   -5.1962    0.0000 C   0  0  0  0  0  0  0  0  0  0  0  0
    1.5000   -5.1962    0.0000 C   0  0  0  0  0  0  0  0  0  0  0  0
    0.7500   -3.8971    0.0000 C   0  0  0  0  0  0  0  0  0  0  0  0
    1.5000   -2.5981    0.0000 C   0  0  0  0  0  0  0  0  0  0  0  0
    0.7500   -1.2990    0.0000 C   0  0  0  0  0  0  0  0  0  0  0  0
    1.5000    0.0000    0.0000 C   0  0  0  0  0  0  0  0  0  0  0  0
    0.7500    1.2990    0.0000 C   0  0  0  0  0  0  0  0  0  0  0  0
    1.5000    2.5981    0.0000 O   0  0  0  0  0  0  0  0  0  0  0  0
   -0.7500    1.2990    0.0000 C   0  0  0  0  0  0  0  0  0  0  0  0
   -1.5000    0.0000    0.0000 C   0  0  0  0  0  0  0  0  0  0  0  0
   -0.7500   -1.2990    0.0000 C   0  0  0  0  0  0  0  0  0  0  0  0
   -2.2500   -1.2990    0.0000 C   0  0  0  0  0  0  0  0  0  0  0  0
   -1.5000   -2.5981    0.0000 C   0  0  0  0  0  0  0  0  0  0  0  0
   -3.0000   -2.5981    0.0000 C   0  0  0  0  0  0  0  0  0  0  0  0
   -3.7500   -3.8971    0.0000 C   0  0  0  0  0  0  0  0  0  0  0  0
   -3.0000   -5.1962    0.0000 C   0  0  0  0  0  0  0  0  0  0  0  0
   -4.4918   -5.3529    0.0000 C   0  0  0  0  0  0  0  0  0  0  0  0
   -3.4635   -6.6227    0.0000 C   0  0  0  0  0  0  0  0  0  0  0  0
   -4.8901   -7.0863    0.0000 O   0  0  0  0  0  0  0  0  0  0  0  0
   -2.2500   -7.5044    0.0000 C   0  0  0  0  0  0  0  0  0  0  0  0
   -1.0365   -6.6227    0.0000 C   0  0  0  0  0  0  0  0  0  0  0  0
   -1.5000   -5.1962    0.0000 C   0  0  0  0  0  0  0  0  0  0  0  0
   -0.7500   -3.8971    0.0000 C   0  0  0  0  0  0  0  0  0  0  0  0
  1  2  1  0
  2  3  1  0
  3  4  1  0
  4  5  1  0
  5  6  1  0
  5  7  1  0
  7  8  2  0
  7  9  1  0
  9 10  1  0
 10 11  1  0
 11 12  1  0
 12 13  1  0
 13 14  1  0
 14 15  1  0
 15 16  1  0
 16 17  1  0
 18 17  1  1
 18 19  1  0
 19 20  1  0
 20 21  1  0
 21 22  1  0
 22 23  2  0
 22 24  1  0
 24 25  1  0
 25 26  1  0
 26 27  1  6
 26 28  1  0
 28 29  1  6
 29 30  1  0
 30 31  1  0
 31 32  1  6
 31 33  1  0
 33 34  1  6
 33 35  1  0
 35 36  1  0
 37 36  1  6
 37 38  1  0
 38 18  1  1
 26 20  1  0
 38 28  1  0
 37 31  1  0
M  END
>  <assay_chembl_id>  (117) 
CHEMBL914604

>  <assay_description>  (117) 
Displacement of [3H]mibolerone from androgen receptor expressed in CHOK1 cells

>  <parent_molecule_chembl_id>  (117) 
CHEMBL224779

>  <canonical_smiles>  (117) 
CCCCN(C)C(=O)CCCCCCCCC[C@@H]1CC2CC(=O)CC[C@]2(C)[C@H]2CC[C@]3(C)[C@@H](O)CC[C@H]3[C@@H]21

>  <standard_type>  (117) 
IC50

>  <standard_relation>  (117) 
=

>  <standard_value>  (117) 
570.0

>  <standard_units>  (117) 
nM

>  <target_pref_name>  (117) 
Androgen Receptor

>  <target_chembl_id>  (117) 
CHEMBL1871

>  <target_organism>  (117) 
Homo sapiens

>  <pchembl_median>  (117) 
6.75

$$$$
CHEMBL389631
     RDKit          2D

 37 40  0  0  0  0  0  0  0  0999 V2000
   16.5000   -7.7942    0.0000 C   0  0  0  0  0  0  0  0  0  0  0  0
   15.0000   -7.7942    0.0000 C   0  0  0  0  0  0  0  0  0  0  0  0
   14.2500   -9.0933    0.0000 C   0  0  0  0  0  0  0  0  0  0  0  0
   12.7500   -9.0933    0.0000 C   0  0  0  0  0  0  0  0  0  0  0  0
   12.0000  -10.3923    0.0000 N   0  0  0  0  0  0  0  0  0  0  0  0
   12.7500  -11.6913    0.0000 C   0  0  0  0  0  0  0  0  0  0  0  0
   10.5000  -10.3923    0.0000 C   0  0  0  0  0  0  0  0  0  0  0  0
    9.7500  -11.6913    0.0000 O   0  0  0  0  0  0  0  0  0  0  0  0
    9.7500   -9.0933    0.0000 C   0  0  0  0  0  0  0  0  0  0  0  0
    8.2500   -9.0933    0.0000 C   0  0  0  0  0  0  0  0  0  0  0  0
    7.5000   -7.7942    0.0000 C   0  0  0  0  0  0  0  0  0  0  0  0
    6.0000   -7.7942    0.0000 C   0  0  0  0  0  0  0  0  0  0  0  0
    5.2500   -6.4952    0.0000 C   0  0  0  0  0  0  0  0  0  0  0  0
    3.7500   -6.4952    0.0000 C   0  0  0  0  0  0  0  0  0  0  0  0
    3.0000   -5.1962    0.0000 C   0  0  0  0  0  0  0  0  0  0  0  0
    1.5000   -5.1962    0.0000 C   0  0  0  0  0  0  0  0  0  0  0  0
    0.7500   -3.8971    0.0000 C   0  0  0  0  0  0  0  0  0  0  0  0
    1.5000   -2.5981    0.0000 C   0  0  0  0  0  0  0  0  0  0  0  0
    0.7500   -1.2990    0.0000 C   0  0  0  0  0  0  0  0  0  0  0  0
    1.5000    0.0000    0.0000 C   0  0  0  0  0  0  0  0  0  0  0  0
    0.7500    1.2990    0.0000 C   0  0  0  0  0  0  0  0  0  0  0  0
    1.5000    2.5981    0.0000 O   0  0  0  0  0  0  0  0  0  0  0  0
   -0.7500    1.2990    0.0000 C   0  0  0  0  0  0  0  0  0  0  0  0
   -1.5000    0.0000    0.0000 C   0  0  0  0  0  0  0  0  0  0  0  0
   -0.7500   -1.2990    0.0000 C   0  0  0  0  0  0  0  0  0  0  0  0
   -2.2500   -1.2990    0.0000 C   0  0  0  0  0  0  0  0  0  0  0  0
   -1.5000   -2.5981    0.0000 C   0  0  0  0  0  0  0  0  0  0  0  0
   -3.0000   -2.5981    0.0000 C   0  0  0  0  0  0  0  0  0  0  0  0
   -3.7500   -3.8971    0.0000 C   0  0  0  0  0  0  0  0  0  0  0  0
   -3.0000   -5.1962    0.0000 C   0  0  0  0  0  0  0  0  0  0  0  0
   -4.4918   -5.3529    0.0000 C   0  0  0  0  0  0  0  0  0  0  0  0
   -3.4635   -6.6227    0.0000 C   0  0  0  0  0  0  0  0  0  0  0  0
   -4.8901   -7.0863    0.0000 O   0  0  0  0  0  0  0  0  0  0  0  0
   -2.2500   -7.5044    0.0000 C   0  0  0  0  0  0  0  0  0  0  0  0
   -1.0365   -6.6227    0.0000 C   0  0  0  0  0  0  0  0  0  0  0  0
   -1.5000   -5.1962    0.0000 C   0  0  0  0  0  0  0  0  0  0  0  0
   -0.7500   -3.8971    0.0000 C   0  0  0  0  0  0  0  0  0  0  0  0
  1  2  1  0
  2  3  1  0
  3  4  1  0
  4  5  1  0
  5  6  1  0
  5  7  1  0
  7  8  2  0
  7  9  1  0
  9 10  1  0
 10 11  1  0
 11 12  1  0
 12 13  1  0
 13 14  1  0
 14 15  1  0
 15 16  1  0
 17 16  1  1
 17 18  1  0
 18 19  1  0
 19 20  1  0
 20 21  1  0
 21 22  2  0
 21 23  1  0
 23 24  1  0
 24 25  1  0
 25 26  1  6
 25 27  1  0
 27 28  1  6
 28 29  1  0
 29 30  1  0
 30 31  1  6
 30 32  1  0
 32 33  1  6
 32 34  1  0
 34 35  1  0
 36 35  1  6
 36 37  1  0
 37 17  1  1
 25 19  1  0
 37 27  1  0
 36 30  1  0
M  END
>  <assay_chembl_id>  (118) 
CHEMBL914604

>  <assay_description>  (118) 
Displacement of [3H]mibolerone from androgen receptor expressed in CHOK1 cells

>  <parent_molecule_chembl_id>  (118) 
CHEMBL389631

>  <canonical_smiles>  (118) 
CCCCN(C)C(=O)CCCCCCCC[C@@H]1CC2CC(=O)CC[C@]2(C)[C@H]2CC[C@]3(C)[C@@H](O)CC[C@H]3[C@@H]21

>  <standard_type>  (118) 
IC50

>  <standard_relation>  (118) 
=

>  <standard_value>  (118) 
550.0

>  <standard_units>  (118) 
nM

>  <target_pref_name>  (118) 
Androgen Receptor

>  <target_chembl_id>  (118) 
CHEMBL1871

>  <target_organism>  (118) 
Homo sapiens

>  <pchembl_median>  (118) 
6.82

$$$$
CHEMBL223813
     RDKit          2D

 36 39  0  0  0  0  0  0  0  0999 V2000
   10.5000  -15.5885    0.0000 C   0  0  0  0  0  0  0  0  0  0  0  0
    9.7500  -14.2894    0.0000 C   0  0  0  0  0  0  0  0  0  0  0  0
   10.5000  -12.9904    0.0000 C   0  0  0  0  0  0  0  0  0  0  0  0
    9.7500  -11.6913    0.0000 C   0  0  0  0  0  0  0  0  0  0  0  0
   10.5000  -10.3923    0.0000 N   0  0  0  0  0  0  0  0  0  0  0  0
   12.0000  -10.3923    0.0000 C   0  0  0  0  0  0  0  0  0  0  0  0
    9.7500   -9.0933    0.0000 C   0  0  0  0  0  0  0  0  0  0  0  0
   10.5000   -7.7942    0.0000 O   0  0  0  0  0  0  0  0  0  0  0  0
    8.2500   -9.0933    0.0000 C   0  0  0  0  0  0  0  0  0  0  0  0
    7.5000   -7.7942    0.0000 C   0  0  0  0  0  0  0  0  0  0  0  0
    6.0000   -7.7942    0.0000 C   0  0  0  0  0  0  0  0  0  0  0  0
    5.2500   -6.4952    0.0000 C   0  0  0  0  0  0  0  0  0  0  0  0
    3.7500   -6.4952    0.0000 C   0  0  0  0  0  0  0  0  0  0  0  0
    3.0000   -5.1962    0.0000 C   0  0  0  0  0  0  0  0  0  0  0  0
    1.5000   -5.1962    0.0000 C   0  0  0  0  0  0  0  0  0  0  0  0
    0.7500   -3.8971    0.0000 C   0  0  0  0  0  0  0  0  0  0  0  0
    1.5000   -2.5981    0.0000 C   0  0  0  0  0  0  0  0  0  0  0  0
    0.7500   -1.2990    0.0000 C   0  0  0  0  0  0  0  0  0  0  0  0
    1.5000    0.0000    0.0000 C   0  0  0  0  0  0  0  0  0  0  0  0
    0.7500    1.2990    0.0000 C   0  0  0  0  0  0  0  0  0  0  0  0
    1.5000    2.5981    0.0000 O   0  0  0  0  0  0  0  0  0  0  0  0
   -0.7500    1.2990    0.0000 C   0  0  0  0  0  0  0  0  0  0  0  0
   -1.5000    0.0000    0.0000 C   0  0  0  0  0  0  0  0  0  0  0  0
   -0.7500   -1.2990    0.0000 C   0  0  0  0  0  0  0  0  0  0  0  0
   -2.2500   -1.2990    0.0000 C   0  0  0  0  0  0  0  0  0  0  0  0
   -1.5000   -2.5981    0.0000 C   0  0  0  0  0  0  0  0  0  0  0  0
   -3.0000   -2.5981    0.0000 C   0  0  0  0  0  0  0  0  0  0  0  0
   -3.7500   -3.8971    0.0000 C   0  0  0  0  0  0  0  0  0  0  0  0
   -3.0000   -5.1962    0.0000 C   0  0  0  0  0  0  0  0  0  0  0  0
   -4.4918   -5.3529    0.0000 C   0  0  0  0  0  0  0  0  0  0  0  0
   -3.4635   -6.6227    0.0000 C   0  0  0  0  0  0  0  0  0  0  0  0
   -4.8901   -7.0863    0.0000 O   0  0  0  0  0  0  0  0  0  0  0  0
   -2.2500   -7.5044    0.0000 C   0  0  0  0  0  0  0  0  0  0  0  0
   -1.0365   -6.6227    0.0000 C   0  0  0  0  0  0  0  0  0  0  0  0
   -1.5000   -5.1962    0.0000 C   0  0  0  0  0  0  0  0  0  0  0  0
   -0.7500   -3.8971    0.0000 C   0  0  0  0  0  0  0  0  0  0  0  0
  1  2  1  0
  2  3  1  0
  3  4  1  0
  4  5  1  0
  5  6  1  0
  5  7  1  0
  7  8  2  0
  7  9  1  0
  9 10  1  0
 10 11  1  0
 11 12  1  0
 12 13  1  0
 13 14  1  0
 14 15  1  0
 16 15  1  1
 16 17  1  0
 17 18  1  0
 18 19  1  0
 19 20  1  0
 20 21  2  0
 20 22  1  0
 22 23  1  0
 23 24  1  0
 24 25  1  6
 24 26  1  0
 26 27  1  6
 27 28  1  0
 28 29  1  0
 29 30  1  6
 29 31  1  0
 31 32  1  6
 31 33  1  0
 33 34  1  0
 35 34  1  6
 35 36  1  0
 36 16  1  1
 24 18  1  0
 36 26  1  0
 35 29  1  0
M  END
>  <assay_chembl_id>  (119) 
CHEMBL914604

>  <assay_description>  (119) 
Displacement of [3H]mibolerone from androgen receptor expressed in CHOK1 cells

>  <parent_molecule_chembl_id>  (119) 
CHEMBL223813

>  <canonical_smiles>  (119) 
CCCCN(C)C(=O)CCCCCCC[C@@H]1CC2CC(=O)CC[C@]2(C)[C@H]2CC[C@]3(C)[C@@H](O)CC[C@H]3[C@@H]21

>  <standard_type>  (119) 
IC50

>  <standard_relation>  (119) 
=

>  <standard_value>  (119) 
280.0

>  <standard_units>  (119) 
nM

>  <target_pref_name>  (119) 
Androgen Receptor

>  <target_chembl_id>  (119) 
CHEMBL1871

>  <target_organism>  (119) 
Homo sapiens

>  <pchembl_median>  (119) 
5.8

$$$$
CHEMBL387850
     RDKit          2D

 40 43  0  0  0  0  0  0  0  0999 V2000
    2.2500   -1.2990    0.0000 C   0  0  0  0  0  0  0  0  0  0  0  0
    0.7500   -1.2990    0.0000 C   0  0  0  0  0  0  0  0  0  0  0  0
    1.5000    0.0000    0.0000 C   0  0  0  0  0  0  0  0  0  0  0  0
    0.7500    1.2990    0.0000 C   0  0  0  0  0  0  0  0  0  0  0  0
   -0.7500    1.2990    0.0000 C   0  0  0  0  0  0  0  0  0  0  0  0
   -1.5000    2.5981    0.0000 O   0  0  0  0  0  0  0  0  0  0  0  0
   -1.5000    0.0000    0.0000 C   0  0  0  0  0  0  0  0  0  0  0  0
   -0.7500   -1.2990    0.0000 C   0  0  0  0  0  0  0  0  0  0  0  0
   -1.5000   -2.5981    0.0000 C   0  0  0  0  0  0  0  0  0  0  0  0
   -0.7500   -3.8971    0.0000 C   0  0  0  0  0  0  0  0  0  0  0  0
   -1.5000   -5.1962    0.0000 C   0  0  0  0  0  0  0  0  0  0  0  0
   -3.0000   -5.1962    0.0000 C   0  0  0  0  0  0  0  0  0  0  0  0
   -3.7500   -6.4952    0.0000 C   0  0  0  0  0  0  0  0  0  0  0  0
   -5.2500   -6.4952    0.0000 C   0  0  0  0  0  0  0  0  0  0  0  0
   -6.0000   -7.7942    0.0000 C   0  0  0  0  0  0  0  0  0  0  0  0
   -7.5000   -7.7942    0.0000 C   0  0  0  0  0  0  0  0  0  0  0  0
   -8.2500   -9.0933    0.0000 C   0  0  0  0  0  0  0  0  0  0  0  0
   -9.7500   -9.0933    0.0000 S   0  0  0  0  0  3  0  0  0  0  0  0
  -10.5000   -7.7942    0.0000 O   0  0  0  0  0  1  0  0  0  0  0  0
  -10.5000  -10.3923    0.0000 C   0  0  0  0  0  0  0  0  0  0  0  0
  -12.0000  -10.3923    0.0000 C   0  0  0  0  0  0  0  0  0  0  0  0
  -12.7500  -11.6913    0.0000 C   0  0  0  0  0  0  0  0  0  0  0  0
  -14.2500  -11.6913    0.0000 C   0  0  0  0  0  0  0  0  0  0  0  0
  -14.2500  -13.1913    0.0000 F   0  0  0  0  0  0  0  0  0  0  0  0
  -14.2500  -10.1913    0.0000 F   0  0  0  0  0  0  0  0  0  0  0  0
  -15.7500  -11.6913    0.0000 C   0  0  0  0  0  0  0  0  0  0  0  0
  -17.2500  -11.6913    0.0000 F   0  0  0  0  0  0  0  0  0  0  0  0
  -15.7500  -10.1913    0.0000 F   0  0  0  0  0  0  0  0  0  0  0  0
  -15.7500  -13.1913    0.0000 F   0  0  0  0  0  0  0  0  0  0  0  0
    0.7500   -3.8971    0.0000 C   0  0  0  0  0  0  0  0  0  0  0  0
    1.5000   -2.5981    0.0000 C   0  0  0  0  0  0  0  0  0  0  0  0
    3.0000   -2.5981    0.0000 C   0  0  0  0  0  0  0  0  0  0  0  0
    3.7500   -3.8971    0.0000 C   0  0  0  0  0  0  0  0  0  0  0  0
    3.0000   -5.1962    0.0000 C   0  0  0  0  0  0  0  0  0  0  0  0
    4.4918   -5.3529    0.0000 C   0  0  0  0  0  0  0  0  0  0  0  0
    3.4635   -6.6227    0.0000 C   0  0  0  0  0  0  0  0  0  0  0  0
    4.8901   -7.0863    0.0000 O   0  0  0  0  0  0  0  0  0  0  0  0
    2.2500   -7.5044    0.0000 C   0  0  0  0  0  0  0  0  0  0  0  0
    1.0365   -6.6227    0.0000 C   0  0  0  0  0  0  0  0  0  0  0  0
    1.5000   -5.1962    0.0000 C   0  0  0  0  0  0  0  0  0  0  0  0
  2  1  1  1
  2  3  1  0
  3  4  1  0
  4  5  1  0
  5  6  2  0
  5  7  1  0
  7  8  1  0
  8  9  1  0
  9 10  1  0
 10 11  1  6
 11 12  1  0
 12 13  1  0
 13 14  1  0
 14 15  1  0
 15 16  1  0
 16 17  1  0
 17 18  1  0
 18 19  1  0
 18 20  1  0
 20 21  1  0
 21 22  1  0
 22 23  1  0
 23 24  1  0
 23 25  1  0
 23 26  1  0
 26 27  1  0
 26 28  1  0
 26 29  1  0
 30 10  1  6
 30 31  1  0
 31 32  1  1
 32 33  1  0
 33 34  1  0
 34 35  1  1
 34 36  1  0
 36 37  1  1
 36 38  1  0
 38 39  1  0
 40 39  1  1
  8  2  1  0
 40 30  1  0
 31  2  1  0
 40 34  1  0
M  CHG  2  18   1  19  -1
M  END
>  <assay_chembl_id>  (120) 
CHEMBL914604

>  <assay_description>  (120) 
Displacement of [3H]mibolerone from androgen receptor expressed in CHOK1 cells

>  <parent_molecule_chembl_id>  (120) 
CHEMBL387850

>  <canonical_smiles>  (120) 
C[C@]12CCC(=O)CC1C[C@@H](CCCCCCC[S+]([O-])CCCC(F)(F)C(F)(F)F)[C@@H]1[C@@H]2CC[C@]2(C)[C@@H](O)CC[C@@H]12

>  <standard_type>  (120) 
IC50

>  <standard_relation>  (120) 
=

>  <standard_value>  (120) 
960.0

>  <standard_units>  (120) 
nM

>  <target_pref_name>  (120) 
Androgen Receptor

>  <target_chembl_id>  (120) 
CHEMBL1871

>  <target_organism>  (120) 
Homo sapiens

>  <pchembl_median>  (120) 
5.89

$$$$
CHEMBL276621
     RDKit          2D

 35 38  0  0  0  0  0  0  0  0999 V2000
   15.0000  -12.9904    0.0000 C   0  0  0  0  0  0  0  0  0  0  0  0
   14.2500  -11.6913    0.0000 C   0  0  0  0  0  0  0  0  0  0  0  0
   12.7500  -11.6913    0.0000 C   0  0  0  0  0  0  0  0  0  0  0  0
   12.0000  -10.3923    0.0000 C   0  0  0  0  0  0  0  0  0  0  0  0
   10.5000  -10.3923    0.0000 N   0  0  0  0  0  0  0  0  0  0  0  0
    9.7500   -9.0933    0.0000 C   0  0  0  0  0  0  0  0  0  0  0  0
   10.5000   -7.7942    0.0000 O   0  0  0  0  0  0  0  0  0  0  0  0
    8.2500   -9.0933    0.0000 C   0  0  0  0  0  0  0  0  0  0  0  0
    7.5000   -7.7942    0.0000 C   0  0  0  0  0  0  0  0  0  0  0  0
    6.0000   -7.7942    0.0000 C   0  0  0  0  0  0  0  0  0  0  0  0
    5.2500   -6.4952    0.0000 C   0  0  0  0  0  0  0  0  0  0  0  0
    3.7500   -6.4952    0.0000 C   0  0  0  0  0  0  0  0  0  0  0  0
    3.0000   -5.1962    0.0000 C   0  0  0  0  0  0  0  0  0  0  0  0
    1.5000   -5.1962    0.0000 C   0  0  0  0  0  0  0  0  0  0  0  0
    0.7500   -3.8971    0.0000 C   0  0  0  0  0  0  0  0  0  0  0  0
    1.5000   -2.5981    0.0000 C   0  0  0  0  0  0  0  0  0  0  0  0
    0.7500   -1.2990    0.0000 C   0  0  0  0  0  0  0  0  0  0  0  0
    1.5000    0.0000    0.0000 C   0  0  0  0  0  0  0  0  0  0  0  0
    0.7500    1.2990    0.0000 C   0  0  0  0  0  0  0  0  0  0  0  0
    1.5000    2.5981    0.0000 O   0  0  0  0  0  0  0  0  0  0  0  0
   -0.7500    1.2990    0.0000 C   0  0  0  0  0  0  0  0  0  0  0  0
   -1.5000    0.0000    0.0000 C   0  0  0  0  0  0  0  0  0  0  0  0
   -0.7500   -1.2990    0.0000 C   0  0  0  0  0  0  0  0  0  0  0  0
   -2.2500   -1.2990    0.0000 C   0  0  0  0  0  0  0  0  0  0  0  0
   -1.5000   -2.5981    0.0000 C   0  0  0  0  0  0  0  0  0  0  0  0
   -3.0000   -2.5981    0.0000 C   0  0  0  0  0  0  0  0  0  0  0  0
   -3.7500   -3.8971    0.0000 C   0  0  0  0  0  0  0  0  0  0  0  0
   -3.0000   -5.1962    0.0000 C   0  0  0  0  0  0  0  0  0  0  0  0
   -4.4918   -5.3529    0.0000 C   0  0  0  0  0  0  0  0  0  0  0  0
   -3.4635   -6.6227    0.0000 C   0  0  0  0  0  0  0  0  0  0  0  0
   -4.8901   -7.0863    0.0000 O   0  0  0  0  0  0  0  0  0  0  0  0
   -2.2500   -7.5044    0.0000 C   0  0  0  0  0  0  0  0  0  0  0  0
   -1.0365   -6.6227    0.0000 C   0  0  0  0  0  0  0  0  0  0  0  0
   -1.5000   -5.1962    0.0000 C   0  0  0  0  0  0  0  0  0  0  0  0
   -0.7500   -3.8971    0.0000 C   0  0  0  0  0  0  0  0  0  0  0  0
  1  2  1  0
  2  3  1  0
  3  4  1  0
  4  5  1  0
  5  6  1  0
  6  7  2  0
  6  8  1  0
  8  9  1  0
  9 10  1  0
 10 11  1  0
 11 12  1  0
 12 13  1  0
 13 14  1  0
 14 15  1  0
 15 16  1  0
 17 16  1  6
 17 18  1  0
 18 19  1  0
 19 20  2  0
 19 21  1  0
 21 22  1  0
 22 23  1  0
 23 24  1  6
 23 25  1  0
 25 26  1  6
 26 27  1  0
 27 28  1  0
 28 29  1  6
 28 30  1  0
 30 31  1  6
 30 32  1  0
 32 33  1  0
 34 33  1  6
 34 35  1  0
 35 15  1  1
 23 17  1  0
 35 25  1  0
 34 28  1  0
M  END
>  <assay_chembl_id>  (121) 
CHEMBL914606

>  <assay_description>  (121) 
Antagonist activity at androgen receptor expressed in HeLa cells assessed as inhibition of dihydrotestosterone-induced transcriptional activity by reporter gene assay

>  <parent_molecule_chembl_id>  (121) 
CHEMBL276621

>  <canonical_smiles>  (121) 
CCCCNC(=O)CCCCCCCC1C[C@H]2CC(=O)CC[C@]2(C)[C@H]2CC[C@]3(C)[C@@H](O)CC[C@H]3[C@H]12

>  <standard_type>  (121) 
IC50

>  <standard_relation>  (121) 
=

>  <standard_value>  (121) 
6300.0

>  <standard_units>  (121) 
nM

>  <target_pref_name>  (121) 
Androgen Receptor

>  <target_chembl_id>  (121) 
CHEMBL1871

>  <target_organism>  (121) 
Homo sapiens

>  <pchembl_median>  (121) 
8.18

$$$$
CHEMBL224278
     RDKit          2D

 46 49  0  0  0  0  0  0  0  0999 V2000
    2.2500   -1.2990    0.0000 C   0  0  0  0  0  0  0  0  0  0  0  0
    0.7500   -1.2990    0.0000 C   0  0  0  0  0  0  0  0  0  0  0  0
    1.5000    0.0000    0.0000 C   0  0  0  0  0  0  0  0  0  0  0  0
    0.7500    1.2990    0.0000 C   0  0  0  0  0  0  0  0  0  0  0  0
   -0.7500    1.2990    0.0000 C   0  0  0  0  0  0  0  0  0  0  0  0
   -1.5000    2.5981    0.0000 O   0  0  0  0  0  0  0  0  0  0  0  0
   -1.5000    0.0000    0.0000 C   0  0  0  0  0  0  0  0  0  0  0  0
   -0.7500   -1.2990    0.0000 C   0  0  0  0  0  0  0  0  0  0  0  0
   -1.5000   -2.5981    0.0000 C   0  0  0  0  0  0  0  0  0  0  0  0
   -0.7500   -3.8971    0.0000 C   0  0  0  0  0  0  0  0  0  0  0  0
   -1.5000   -5.1962    0.0000 C   0  0  0  0  0  0  0  0  0  0  0  0
   -3.0000   -5.1962    0.0000 C   0  0  0  0  0  0  0  0  0  0  0  0
   -3.7500   -6.4952    0.0000 C   0  0  0  0  0  0  0  0  0  0  0  0
   -5.2500   -6.4952    0.0000 C   0  0  0  0  0  0  0  0  0  0  0  0
   -6.0000   -7.7942    0.0000 C   0  0  0  0  0  0  0  0  0  0  0  0
   -7.5000   -7.7942    0.0000 C   0  0  0  0  0  0  0  0  0  0  0  0
   -8.2500   -9.0933    0.0000 C   0  0  0  0  0  0  0  0  0  0  0  0
   -9.7500   -9.0933    0.0000 C   0  0  0  0  0  0  0  0  0  0  0  0
  -10.5000  -10.3923    0.0000 C   0  0  0  0  0  0  0  0  0  0  0  0
  -12.0000  -10.3923    0.0000 C   0  0  0  0  0  0  0  0  0  0  0  0
  -12.7500  -11.6913    0.0000 C   0  0  0  0  0  0  0  0  0  0  0  0
  -14.2500  -11.6913    0.0000 C   0  0  0  0  0  0  0  0  0  0  0  0
  -15.0000  -12.9904    0.0000 C   0  0  0  0  0  0  0  0  0  0  0  0
  -16.5000  -12.9904    0.0000 S   0  0  0  0  0  3  0  0  0  0  0  0
  -17.2500  -11.6913    0.0000 O   0  0  0  0  0  1  0  0  0  0  0  0
  -17.2500  -14.2894    0.0000 C   0  0  0  0  0  0  0  0  0  0  0  0
  -18.7500  -14.2894    0.0000 C   0  0  0  0  0  0  0  0  0  0  0  0
  -19.5000  -15.5885    0.0000 C   0  0  0  0  0  0  0  0  0  0  0  0
  -21.0000  -15.5885    0.0000 C   0  0  0  0  0  0  0  0  0  0  0  0
  -21.0000  -17.0885    0.0000 F   0  0  0  0  0  0  0  0  0  0  0  0
  -21.0000  -14.0885    0.0000 F   0  0  0  0  0  0  0  0  0  0  0  0
  -22.5000  -15.5885    0.0000 C   0  0  0  0  0  0  0  0  0  0  0  0
  -24.0000  -15.5885    0.0000 F   0  0  0  0  0  0  0  0  0  0  0  0
  -22.5000  -14.0885    0.0000 F   0  0  0  0  0  0  0  0  0  0  0  0
  -22.5000  -17.0885    0.0000 F   0  0  0  0  0  0  0  0  0  0  0  0
    0.7500   -3.8971    0.0000 C   0  0  0  0  0  0  0  0  0  0  0  0
    1.5000   -2.5981    0.0000 C   0  0  0  0  0  0  0  0  0  0  0  0
    3.0000   -2.5981    0.0000 C   0  0  0  0  0  0  0  0  0  0  0  0
    3.7500   -3.8971    0.0000 C   0  0  0  0  0  0  0  0  0  0  0  0
    3.0000   -5.1962    0.0000 C   0  0  0  0  0  0  0  0  0  0  0  0
    4.4918   -5.3529    0.0000 C   0  0  0  0  0  0  0  0  0  0  0  0
    3.4635   -6.6227    0.0000 C   0  0  0  0  0  0  0  0  0  0  0  0
    4.8901   -7.0863    0.0000 O   0  0  0  0  0  0  0  0  0  0  0  0
    2.2500   -7.5044    0.0000 C   0  0  0  0  0  0  0  0  0  0  0  0
    1.0365   -6.6227    0.0000 C   0  0  0  0  0  0  0  0  0  0  0  0
    1.5000   -5.1962    0.0000 C   0  0  0  0  0  0  0  0  0  0  0  0
  2  1  1  1
  2  3  1  0
  3  4  1  0
  4  5  1  0
  5  6  2  0
  5  7  1  0
  7  8  1  0
  8  9  1  0
  9 10  1  0
 10 11  1  6
 11 12  1  0
 12 13  1  0
 13 14  1  0
 14 15  1  0
 15 16  1  0
 16 17  1  0
 17 18  1  0
 18 19  1  0
 19 20  1  0
 20 21  1  0
 21 22  1  0
 22 23  1  0
 23 24  1  0
 24 25  1  0
 24 26  1  0
 26 27  1  0
 27 28  1  0
 28 29  1  0
 29 30  1  0
 29 31  1  0
 29 32  1  0
 32 33  1  0
 32 34  1  0
 32 35  1  0
 36 10  1  6
 36 37  1  0
 37 38  1  1
 38 39  1  0
 39 40  1  0
 40 41  1  1
 40 42  1  0
 42 43  1  1
 42 44  1  0
 44 45  1  0
 46 45  1  1
  8  2  1  0
 46 36  1  0
 37  2  1  0
 46 40  1  0
M  CHG  2  24   1  25  -1
M  END
>  <assay_chembl_id>  (122) 
CHEMBL914606

>  <assay_description>  (122) 
Antagonist activity at androgen receptor expressed in HeLa cells assessed as inhibition of dihydrotestosterone-induced transcriptional activity by reporter gene assay

>  <parent_molecule_chembl_id>  (122) 
CHEMBL224278

>  <canonical_smiles>  (122) 
C[C@]12CCC(=O)CC1C[C@@H](CCCCCCCCCCCCC[S+]([O-])CCCC(F)(F)C(F)(F)F)[C@@H]1[C@@H]2CC[C@]2(C)[C@@H](O)CC[C@@H]12

>  <standard_type>  (122) 
IC50

>  <standard_relation>  (122) 
=

>  <standard_value>  (122) 
10000.0

>  <standard_units>  (122) 
nM

>  <target_pref_name>  (122) 
Androgen Receptor

>  <target_chembl_id>  (122) 
CHEMBL1871

>  <target_organism>  (122) 
Homo sapiens

>  <pchembl_median>  (122) 
5.735

$$$$
CHEMBL238365
     RDKit          2D

 19 20  0  0  0  0  0  0  0  0999 V2000
    4.5000    0.0000    0.0000 N   0  0  0  0  0  0  0  0  0  0  0  0
    3.0000    0.0000    0.0000 C   0  0  0  0  0  0  0  0  0  0  0  0
    1.5000    0.0000    0.0000 C   0  0  0  0  0  0  0  0  0  0  0  0
    0.7500   -1.2990    0.0000 C   0  0  0  0  0  0  0  0  0  0  0  0
   -0.7500   -1.2990    0.0000 C   0  0  0  0  0  0  0  0  0  0  0  0
   -1.5000    0.0000    0.0000 C   0  0  0  0  0  0  0  0  0  0  0  0
   -3.0000    0.0000    0.0000 C   0  0  0  0  0  0  0  0  0  0  0  0
   -3.7500    1.2990    0.0000 C   0  0  0  0  0  0  0  0  0  0  0  0
   -5.2500    1.2990    0.0000 C   0  0  0  0  0  0  0  0  0  0  0  0
   -6.0000    0.0000    0.0000 C   0  0  0  0  0  0  0  0  0  0  0  0
   -5.2500   -1.2990    0.0000 C   0  0  0  0  0  0  0  0  0  0  0  0
   -3.7500   -1.2990    0.0000 C   0  0  0  0  0  0  0  0  0  0  0  0
   -3.0000   -2.5981    0.0000 Cl  0  0  0  0  0  0  0  0  0  0  0  0
   -0.7500    1.2990    0.0000 C   0  0  0  0  0  0  0  0  0  0  0  0
    0.7500    1.2990    0.0000 C   0  0  0  0  0  0  0  0  0  0  0  0
    1.5000    2.5981    0.0000 C   0  0  0  0  0  0  0  0  0  0  0  0
    2.2500    3.8971    0.0000 F   0  0  0  0  0  0  0  0  0  0  0  0
    0.2010    3.3481    0.0000 F   0  0  0  0  0  0  0  0  0  0  0  0
    2.7990    1.8481    0.0000 F   0  0  0  0  0  0  0  0  0  0  0  0
  1  2  3  0
  2  3  1  0
  3  4  2  0
  4  5  1  0
  5  6  2  0
  6  7  1  0
  7  8  2  0
  8  9  1  0
  9 10  2  0
 10 11  1  0
 11 12  2  0
 12 13  1  0
  6 14  1  0
 14 15  2  0
 15 16  1  0
 16 17  1  0
 16 18  1  0
 16 19  1  0
 15  3  1  0
 12  7  1  0
M  END
>  <assay_chembl_id>  (123) 
CHEMBL899495

>  <assay_description>  (123) 
Displacement of [3H]DHT from human recombinant AR expressed in Sf9 cells

>  <parent_molecule_chembl_id>  (123) 
CHEMBL238365

>  <canonical_smiles>  (123) 
N#Cc1ccc(-c2ccccc2Cl)cc1C(F)(F)F

>  <standard_type>  (123) 
IC50

>  <standard_relation>  (123) 
=

>  <standard_value>  (123) 
9.8

>  <standard_units>  (123) 
nM

>  <target_pref_name>  (123) 
Androgen Receptor

>  <target_chembl_id>  (123) 
CHEMBL1871

>  <target_organism>  (123) 
Homo sapiens

>  <pchembl_median>  (123) 
6.09

$$$$
CHEMBL238340
     RDKit          2D

 26 27  0  0  0  0  0  0  0  0999 V2000
   10.5000   -5.1962    0.0000 C   0  0  0  0  0  0  0  0  0  0  0  0
    9.7500   -3.8971    0.0000 O   0  0  0  0  0  0  0  0  0  0  0  0
    8.2500   -3.8971    0.0000 C   0  0  0  0  0  0  0  0  0  0  0  0
    7.5000   -2.5981    0.0000 C   0  0  0  0  0  0  0  0  0  0  0  0
    6.0000   -2.5981    0.0000 O   0  0  0  0  0  0  0  0  0  0  0  0
    5.2500   -1.2990    0.0000 C   0  0  0  0  0  0  0  0  0  0  0  0
    3.7500   -1.2990    0.0000 C   0  0  0  0  0  0  0  0  0  0  0  0
    3.0000    0.0000    0.0000 O   0  0  0  0  0  0  0  0  0  0  0  0
    1.5000    0.0000    0.0000 C   0  0  0  0  0  0  0  0  0  0  0  0
    0.7500   -1.2990    0.0000 C   0  0  0  0  0  0  0  0  0  0  0  0
   -0.7500   -1.2990    0.0000 C   0  0  0  0  0  0  0  0  0  0  0  0
   -1.5000    0.0000    0.0000 C   0  0  0  0  0  0  0  0  0  0  0  0
   -0.7500    1.2990    0.0000 C   0  0  0  0  0  0  0  0  0  0  0  0
    0.7500    1.2990    0.0000 C   0  0  0  0  0  0  0  0  0  0  0  0
    1.5000    2.5981    0.0000 C   0  0  0  0  0  0  0  0  0  0  0  0
    3.0000    2.5981    0.0000 C   0  0  0  0  0  0  0  0  0  0  0  0
    3.7500    3.8971    0.0000 C   0  0  0  0  0  0  0  0  0  0  0  0
    3.0000    5.1962    0.0000 C   0  0  0  0  0  0  0  0  0  0  0  0
    3.7500    6.4952    0.0000 C   0  0  0  0  0  0  0  0  0  0  0  0
    4.5000    7.7942    0.0000 N   0  0  0  0  0  0  0  0  0  0  0  0
    1.5000    5.1962    0.0000 C   0  0  0  0  0  0  0  0  0  0  0  0
    0.7500    6.4952    0.0000 C   0  0  0  0  0  0  0  0  0  0  0  0
    0.0000    7.7942    0.0000 F   0  0  0  0  0  0  0  0  0  0  0  0
   -0.5490    5.7452    0.0000 F   0  0  0  0  0  0  0  0  0  0  0  0
    2.0490    7.2452    0.0000 F   0  0  0  0  0  0  0  0  0  0  0  0
    0.7500    3.8971    0.0000 C   0  0  0  0  0  0  0  0  0  0  0  0
  1  2  1  0
  2  3  1  0
  3  4  1  0
  4  5  1  0
  5  6  1  0
  6  7  1  0
  7  8  1  0
  8  9  1  0
  9 10  2  0
 10 11  1  0
 11 12  2  0
 12 13  1  0
 13 14  2  0
 14 15  1  0
 15 16  2  0
 16 17  1  0
 17 18  2  0
 18 19  1  0
 19 20  3  0
 18 21  1  0
 21 22  1  0
 22 23  1  0
 22 24  1  0
 22 25  1  0
 21 26  2  0
 14  9  1  0
 26 15  1  0
M  END
>  <assay_chembl_id>  (124) 
CHEMBL899495

>  <assay_description>  (124) 
Displacement of [3H]DHT from human recombinant AR expressed in Sf9 cells

>  <parent_molecule_chembl_id>  (124) 
CHEMBL238340

>  <canonical_smiles>  (124) 
COCCOCCOc1ccccc1-c1ccc(C#N)c(C(F)(F)F)c1

>  <standard_type>  (124) 
IC50

>  <standard_relation>  (124) 
=

>  <standard_value>  (124) 
8140.0

>  <standard_units>  (124) 
nM

>  <target_pref_name>  (124) 
Androgen Receptor

>  <target_chembl_id>  (124) 
CHEMBL1871

>  <target_organism>  (124) 
Homo sapiens

>  <pchembl_median>  (124) 
6.77

$$$$
CHEMBL238338
     RDKit          2D

 22 23  0  0  0  0  0  0  0  0999 V2000
    4.5000    0.0000    0.0000 N   0  0  0  0  0  0  0  0  0  0  0  0
    3.0000    0.0000    0.0000 C   0  0  0  0  0  0  0  0  0  0  0  0
    1.5000    0.0000    0.0000 C   0  0  0  0  0  0  0  0  0  0  0  0
    0.7500   -1.2990    0.0000 C   0  0  0  0  0  0  0  0  0  0  0  0
   -0.7500   -1.2990    0.0000 C   0  0  0  0  0  0  0  0  0  0  0  0
   -1.5000    0.0000    0.0000 C   0  0  0  0  0  0  0  0  0  0  0  0
   -3.0000    0.0000    0.0000 C   0  0  0  0  0  0  0  0  0  0  0  0
   -3.7500    1.2990    0.0000 C   0  0  0  0  0  0  0  0  0  0  0  0
   -5.2500    1.2990    0.0000 C   0  0  0  0  0  0  0  0  0  0  0  0
   -6.0000    0.0000    0.0000 C   0  0  0  0  0  0  0  0  0  0  0  0
   -5.2500   -1.2990    0.0000 C   0  0  0  0  0  0  0  0  0  0  0  0
   -3.7500   -1.2990    0.0000 C   0  0  0  0  0  0  0  0  0  0  0  0
   -3.0000   -2.5981    0.0000 O   0  0  0  0  0  0  0  0  0  0  0  0
   -3.7500   -3.8971    0.0000 C   0  0  0  0  0  0  0  0  0  0  0  0
   -3.0000   -5.1962    0.0000 C   0  0  0  0  0  0  0  0  0  0  0  0
   -3.7500   -6.4952    0.0000 O   0  0  0  0  0  0  0  0  0  0  0  0
   -0.7500    1.2990    0.0000 C   0  0  0  0  0  0  0  0  0  0  0  0
    0.7500    1.2990    0.0000 C   0  0  0  0  0  0  0  0  0  0  0  0
    1.5000    2.5981    0.0000 C   0  0  0  0  0  0  0  0  0  0  0  0
    2.2500    3.8971    0.0000 F   0  0  0  0  0  0  0  0  0  0  0  0
    0.2010    3.3481    0.0000 F   0  0  0  0  0  0  0  0  0  0  0  0
    2.7990    1.8481    0.0000 F   0  0  0  0  0  0  0  0  0  0  0  0
  1  2  3  0
  2  3  1  0
  3  4  2  0
  4  5  1  0
  5  6  2  0
  6  7  1  0
  7  8  2  0
  8  9  1  0
  9 10  2  0
 10 11  1  0
 11 12  2  0
 12 13  1  0
 13 14  1  0
 14 15  1  0
 15 16  1  0
  6 17  1  0
 17 18  2  0
 18 19  1  0
 19 20  1  0
 19 21  1  0
 19 22  1  0
 18  3  1  0
 12  7  1  0
M  END
>  <assay_chembl_id>  (125) 
CHEMBL899495

>  <assay_description>  (125) 
Displacement of [3H]DHT from human recombinant AR expressed in Sf9 cells

>  <parent_molecule_chembl_id>  (125) 
CHEMBL238338

>  <canonical_smiles>  (125) 
N#Cc1ccc(-c2ccccc2OCCO)cc1C(F)(F)F

>  <standard_type>  (125) 
IC50

>  <standard_relation>  (125) 
=

>  <standard_value>  (125) 
1540.0

>  <standard_units>  (125) 
nM

>  <target_pref_name>  (125) 
Androgen Receptor

>  <target_chembl_id>  (125) 
CHEMBL1871

>  <target_organism>  (125) 
Homo sapiens

>  <pchembl_median>  (125) 
6.98

$$$$
CHEMBL266491
     RDKit          2D

 23 24  0  0  0  0  0  0  0  0999 V2000
    7.5000   -2.5981    0.0000 C   0  0  0  0  0  0  0  0  0  0  0  0
    6.0000   -2.5981    0.0000 O   0  0  0  0  0  0  0  0  0  0  0  0
    5.2500   -1.2990    0.0000 C   0  0  0  0  0  0  0  0  0  0  0  0
    3.7500   -1.2990    0.0000 C   0  0  0  0  0  0  0  0  0  0  0  0
    3.0000    0.0000    0.0000 O   0  0  0  0  0  0  0  0  0  0  0  0
    1.5000    0.0000    0.0000 C   0  0  0  0  0  0  0  0  0  0  0  0
    0.7500   -1.2990    0.0000 C   0  0  0  0  0  0  0  0  0  0  0  0
   -0.7500   -1.2990    0.0000 C   0  0  0  0  0  0  0  0  0  0  0  0
   -1.5000    0.0000    0.0000 C   0  0  0  0  0  0  0  0  0  0  0  0
   -0.7500    1.2990    0.0000 C   0  0  0  0  0  0  0  0  0  0  0  0
    0.7500    1.2990    0.0000 C   0  0  0  0  0  0  0  0  0  0  0  0
    1.5000    2.5981    0.0000 C   0  0  0  0  0  0  0  0  0  0  0  0
    3.0000    2.5981    0.0000 C   0  0  0  0  0  0  0  0  0  0  0  0
    3.7500    3.8971    0.0000 C   0  0  0  0  0  0  0  0  0  0  0  0
    3.0000    5.1962    0.0000 C   0  0  0  0  0  0  0  0  0  0  0  0
    3.7500    6.4952    0.0000 C   0  0  0  0  0  0  0  0  0  0  0  0
    4.5000    7.7942    0.0000 N   0  0  0  0  0  0  0  0  0  0  0  0
    1.5000    5.1962    0.0000 C   0  0  0  0  0  0  0  0  0  0  0  0
    0.7500    6.4952    0.0000 C   0  0  0  0  0  0  0  0  0  0  0  0
    0.0000    7.7942    0.0000 F   0  0  0  0  0  0  0  0  0  0  0  0
   -0.5490    5.7452    0.0000 F   0  0  0  0  0  0  0  0  0  0  0  0
    2.0490    7.2452    0.0000 F   0  0  0  0  0  0  0  0  0  0  0  0
    0.7500    3.8971    0.0000 C   0  0  0  0  0  0  0  0  0  0  0  0
  1  2  1  0
  2  3  1  0
  3  4  1  0
  4  5  1  0
  5  6  1  0
  6  7  2  0
  7  8  1  0
  8  9  2  0
  9 10  1  0
 10 11  2  0
 11 12  1  0
 12 13  2  0
 13 14  1  0
 14 15  2  0
 15 16  1  0
 16 17  3  0
 15 18  1  0
 18 19  1  0
 19 20  1  0
 19 21  1  0
 19 22  1  0
 18 23  2  0
 11  6  1  0
 23 12  1  0
M  END
>  <assay_chembl_id>  (126) 
CHEMBL899495

>  <assay_description>  (126) 
Displacement of [3H]DHT from human recombinant AR expressed in Sf9 cells

>  <parent_molecule_chembl_id>  (126) 
CHEMBL266491

>  <canonical_smiles>  (126) 
COCCOc1ccccc1-c1ccc(C#N)c(C(F)(F)F)c1

>  <standard_type>  (126) 
IC50

>  <standard_relation>  (126) 
=

>  <standard_value>  (126) 
2230.0

>  <standard_units>  (126) 
nM

>  <target_pref_name>  (126) 
Androgen Receptor

>  <target_chembl_id>  (126) 
CHEMBL1871

>  <target_organism>  (126) 
Homo sapiens

>  <pchembl_median>  (126) 
6.58

$$$$
CHEMBL235784
     RDKit          2D

 24 25  0  0  0  0  0  0  0  0999 V2000
    7.5000   -2.5981    0.0000 C   0  0  0  0  0  0  0  0  0  0  0  0
    6.0000   -2.5981    0.0000 O   0  0  0  0  0  0  0  0  0  0  0  0
    5.2500   -1.2990    0.0000 C   0  0  0  0  0  0  0  0  0  0  0  0
    6.0000    0.0000    0.0000 O   0  0  0  0  0  0  0  0  0  0  0  0
    3.7500   -1.2990    0.0000 C   0  0  0  0  0  0  0  0  0  0  0  0
    3.0000    0.0000    0.0000 O   0  0  0  0  0  0  0  0  0  0  0  0
    1.5000    0.0000    0.0000 C   0  0  0  0  0  0  0  0  0  0  0  0
    0.7500   -1.2990    0.0000 C   0  0  0  0  0  0  0  0  0  0  0  0
   -0.7500   -1.2990    0.0000 C   0  0  0  0  0  0  0  0  0  0  0  0
   -1.5000    0.0000    0.0000 C   0  0  0  0  0  0  0  0  0  0  0  0
   -0.7500    1.2990    0.0000 C   0  0  0  0  0  0  0  0  0  0  0  0
    0.7500    1.2990    0.0000 C   0  0  0  0  0  0  0  0  0  0  0  0
    1.5000    2.5981    0.0000 C   0  0  0  0  0  0  0  0  0  0  0  0
    3.0000    2.5981    0.0000 C   0  0  0  0  0  0  0  0  0  0  0  0
    3.7500    3.8971    0.0000 C   0  0  0  0  0  0  0  0  0  0  0  0
    3.0000    5.1962    0.0000 C   0  0  0  0  0  0  0  0  0  0  0  0
    3.7500    6.4952    0.0000 C   0  0  0  0  0  0  0  0  0  0  0  0
    4.5000    7.7942    0.0000 N   0  0  0  0  0  0  0  0  0  0  0  0
    1.5000    5.1962    0.0000 C   0  0  0  0  0  0  0  0  0  0  0  0
    0.7500    6.4952    0.0000 C   0  0  0  0  0  0  0  0  0  0  0  0
    0.0000    7.7942    0.0000 F   0  0  0  0  0  0  0  0  0  0  0  0
   -0.5490    5.7452    0.0000 F   0  0  0  0  0  0  0  0  0  0  0  0
    2.0490    7.2452    0.0000 F   0  0  0  0  0  0  0  0  0  0  0  0
    0.7500    3.8971    0.0000 C   0  0  0  0  0  0  0  0  0  0  0  0
  1  2  1  0
  2  3  1  0
  3  4  2  0
  3  5  1  0
  5  6  1  0
  6  7  1  0
  7  8  2  0
  8  9  1  0
  9 10  2  0
 10 11  1  0
 11 12  2  0
 12 13  1  0
 13 14  2  0
 14 15  1  0
 15 16  2  0
 16 17  1  0
 17 18  3  0
 16 19  1  0
 19 20  1  0
 20 21  1  0
 20 22  1  0
 20 23  1  0
 19 24  2  0
 12  7  1  0
 24 13  1  0
M  END
>  <assay_chembl_id>  (127) 
CHEMBL899495

>  <assay_description>  (127) 
Displacement of [3H]DHT from human recombinant AR expressed in Sf9 cells

>  <parent_molecule_chembl_id>  (127) 
CHEMBL235784

>  <canonical_smiles>  (127) 
COC(=O)COc1ccccc1-c1ccc(C#N)c(C(F)(F)F)c1

>  <standard_type>  (127) 
IC50

>  <standard_relation>  (127) 
=

>  <standard_value>  (127) 
1310.0

>  <standard_units>  (127) 
nM

>  <target_pref_name>  (127) 
Androgen Receptor

>  <target_chembl_id>  (127) 
CHEMBL1871

>  <target_organism>  (127) 
Homo sapiens

>  <pchembl_median>  (127) 
6.2

$$$$
CHEMBL394392
     RDKit          2D

 20 21  0  0  0  0  0  0  0  0999 V2000
    4.5000    0.0000    0.0000 N   0  0  0  0  0  0  0  0  0  0  0  0
    3.0000    0.0000    0.0000 C   0  0  0  0  0  0  0  0  0  0  0  0
    1.5000    0.0000    0.0000 C   0  0  0  0  0  0  0  0  0  0  0  0
    0.7500   -1.2990    0.0000 C   0  0  0  0  0  0  0  0  0  0  0  0
   -0.7500   -1.2990    0.0000 C   0  0  0  0  0  0  0  0  0  0  0  0
   -1.5000    0.0000    0.0000 C   0  0  0  0  0  0  0  0  0  0  0  0
   -3.0000    0.0000    0.0000 C   0  0  0  0  0  0  0  0  0  0  0  0
   -3.7500    1.2990    0.0000 C   0  0  0  0  0  0  0  0  0  0  0  0
   -3.0000    2.5981    0.0000 O   0  0  0  0  0  0  0  0  0  0  0  0
   -5.2500    1.2990    0.0000 C   0  0  0  0  0  0  0  0  0  0  0  0
   -6.0000    0.0000    0.0000 C   0  0  0  0  0  0  0  0  0  0  0  0
   -5.2500   -1.2990    0.0000 C   0  0  0  0  0  0  0  0  0  0  0  0
   -3.7500   -1.2990    0.0000 C   0  0  0  0  0  0  0  0  0  0  0  0
   -3.0000   -2.5981    0.0000 O   0  0  0  0  0  0  0  0  0  0  0  0
   -0.7500    1.2990    0.0000 C   0  0  0  0  0  0  0  0  0  0  0  0
    0.7500    1.2990    0.0000 C   0  0  0  0  0  0  0  0  0  0  0  0
    1.5000    2.5981    0.0000 C   0  0  0  0  0  0  0  0  0  0  0  0
    2.2500    3.8971    0.0000 F   0  0  0  0  0  0  0  0  0  0  0  0
    0.2010    3.3481    0.0000 F   0  0  0  0  0  0  0  0  0  0  0  0
    2.7990    1.8481    0.0000 F   0  0  0  0  0  0  0  0  0  0  0  0
  1  2  3  0
  2  3  1  0
  3  4  2  0
  4  5  1  0
  5  6  2  0
  6  7  1  0
  7  8  2  0
  8  9  1  0
  8 10  1  0
 10 11  2  0
 11 12  1  0
 12 13  2  0
 13 14  1  0
  6 15  1  0
 15 16  2  0
 16 17  1  0
 17 18  1  0
 17 19  1  0
 17 20  1  0
 16  3  1  0
 13  7  1  0
M  END
>  <assay_chembl_id>  (128) 
CHEMBL899495

>  <assay_description>  (128) 
Displacement of [3H]DHT from human recombinant AR expressed in Sf9 cells

>  <parent_molecule_chembl_id>  (128) 
CHEMBL394392

>  <canonical_smiles>  (128) 
N#Cc1ccc(-c2c(O)cccc2O)cc1C(F)(F)F

>  <standard_type>  (128) 
IC50

>  <standard_relation>  (128) 
=

>  <standard_value>  (128) 
989.0

>  <standard_units>  (128) 
nM

>  <target_pref_name>  (128) 
Androgen Receptor

>  <target_chembl_id>  (128) 
CHEMBL1871

>  <target_organism>  (128) 
Homo sapiens

>  <pchembl_median>  (128) 
7.11

$$$$
CHEMBL396656
     RDKit          2D

 22 23  0  0  0  0  0  0  0  0999 V2000
    4.5000    0.0000    0.0000 N   0  0  0  0  0  0  0  0  0  0  0  0
    3.0000    0.0000    0.0000 C   0  0  0  0  0  0  0  0  0  0  0  0
    1.5000    0.0000    0.0000 C   0  0  0  0  0  0  0  0  0  0  0  0
    0.7500   -1.2990    0.0000 C   0  0  0  0  0  0  0  0  0  0  0  0
   -0.7500   -1.2990    0.0000 C   0  0  0  0  0  0  0  0  0  0  0  0
   -1.5000    0.0000    0.0000 C   0  0  0  0  0  0  0  0  0  0  0  0
   -3.0000    0.0000    0.0000 C   0  0  0  0  0  0  0  0  0  0  0  0
   -3.7500    1.2990    0.0000 C   0  0  0  0  0  0  0  0  0  0  0  0
   -5.2500    1.2990    0.0000 C   0  0  0  0  0  0  0  0  0  0  0  0
   -6.0000    0.0000    0.0000 C   0  0  0  0  0  0  0  0  0  0  0  0
   -5.2500   -1.2990    0.0000 C   0  0  0  0  0  0  0  0  0  0  0  0
   -3.7500   -1.2990    0.0000 C   0  0  0  0  0  0  0  0  0  0  0  0
   -3.0000   -2.5981    0.0000 C   0  0  0  0  0  0  0  0  0  0  0  0
   -2.2500   -3.8971    0.0000 F   0  0  0  0  0  0  0  0  0  0  0  0
   -4.2990   -3.3481    0.0000 F   0  0  0  0  0  0  0  0  0  0  0  0
   -1.7010   -1.8481    0.0000 F   0  0  0  0  0  0  0  0  0  0  0  0
   -0.7500    1.2990    0.0000 C   0  0  0  0  0  0  0  0  0  0  0  0
    0.7500    1.2990    0.0000 C   0  0  0  0  0  0  0  0  0  0  0  0
    1.5000    2.5981    0.0000 C   0  0  0  0  0  0  0  0  0  0  0  0
    2.2500    3.8971    0.0000 F   0  0  0  0  0  0  0  0  0  0  0  0
    0.2010    3.3481    0.0000 F   0  0  0  0  0  0  0  0  0  0  0  0
    2.7990    1.8481    0.0000 F   0  0  0  0  0  0  0  0  0  0  0  0
  1  2  3  0
  2  3  1  0
  3  4  2  0
  4  5  1  0
  5  6  2  0
  6  7  1  0
  7  8  2  0
  8  9  1  0
  9 10  2  0
 10 11  1  0
 11 12  2  0
 12 13  1  0
 13 14  1  0
 13 15  1  0
 13 16  1  0
  6 17  1  0
 17 18  2  0
 18 19  1  0
 19 20  1  0
 19 21  1  0
 19 22  1  0
 18  3  1  0
 12  7  1  0
M  END
>  <assay_chembl_id>  (129) 
CHEMBL899495

>  <assay_description>  (129) 
Displacement of [3H]DHT from human recombinant AR expressed in Sf9 cells

>  <parent_molecule_chembl_id>  (129) 
CHEMBL396656

>  <canonical_smiles>  (129) 
N#Cc1ccc(-c2ccccc2C(F)(F)F)cc1C(F)(F)F

>  <standard_type>  (129) 
IC50

>  <standard_relation>  (129) 
=

>  <standard_value>  (129) 
10.9

>  <standard_units>  (129) 
nM

>  <target_pref_name>  (129) 
Androgen Receptor

>  <target_chembl_id>  (129) 
CHEMBL1871

>  <target_organism>  (129) 
Homo sapiens

>  <pchembl_median>  (129) 
7.15

$$$$
CHEMBL392827
     RDKit          2D

 19 20  0  0  0  0  0  0  0  0999 V2000
    3.0000    0.0000    0.0000 C   0  0  0  0  0  0  0  0  0  0  0  0
    1.5000    0.0000    0.0000 C   0  0  0  0  0  0  0  0  0  0  0  0
    0.7500   -1.2990    0.0000 C   0  0  0  0  0  0  0  0  0  0  0  0
   -0.7500   -1.2990    0.0000 C   0  0  0  0  0  0  0  0  0  0  0  0
   -1.5000    0.0000    0.0000 C   0  0  0  0  0  0  0  0  0  0  0  0
   -3.0000    0.0000    0.0000 C   0  0  0  0  0  0  0  0  0  0  0  0
   -3.7500    1.2990    0.0000 C   0  0  0  0  0  0  0  0  0  0  0  0
   -5.2500    1.2990    0.0000 C   0  0  0  0  0  0  0  0  0  0  0  0
   -6.0000    0.0000    0.0000 C   0  0  0  0  0  0  0  0  0  0  0  0
   -7.5000    0.0000    0.0000 C   0  0  0  0  0  0  0  0  0  0  0  0
   -9.0000   -0.0000    0.0000 N   0  0  0  0  0  0  0  0  0  0  0  0
   -5.2500   -1.2990    0.0000 C   0  0  0  0  0  0  0  0  0  0  0  0
   -6.0000   -2.5981    0.0000 C   0  0  0  0  0  0  0  0  0  0  0  0
   -6.7500   -3.8971    0.0000 F   0  0  0  0  0  0  0  0  0  0  0  0
   -4.7010   -3.3481    0.0000 F   0  0  0  0  0  0  0  0  0  0  0  0
   -7.2990   -1.8481    0.0000 F   0  0  0  0  0  0  0  0  0  0  0  0
   -3.7500   -1.2990    0.0000 C   0  0  0  0  0  0  0  0  0  0  0  0
   -0.7500    1.2990    0.0000 C   0  0  0  0  0  0  0  0  0  0  0  0
    0.7500    1.2990    0.0000 C   0  0  0  0  0  0  0  0  0  0  0  0
  1  2  1  0
  2  3  2  0
  3  4  1  0
  4  5  2  0
  5  6  1  0
  6  7  2  0
  7  8  1  0
  8  9  2  0
  9 10  1  0
 10 11  3  0
  9 12  1  0
 12 13  1  0
 13 14  1  0
 13 15  1  0
 13 16  1  0
 12 17  2  0
  5 18  1  0
 18 19  2  0
 19  2  1  0
 17  6  1  0
M  END
>  <assay_chembl_id>  (130) 
CHEMBL899495

>  <assay_description>  (130) 
Displacement of [3H]DHT from human recombinant AR expressed in Sf9 cells

>  <parent_molecule_chembl_id>  (130) 
CHEMBL392827

>  <canonical_smiles>  (130) 
Cc1ccc(-c2ccc(C#N)c(C(F)(F)F)c2)cc1

>  <standard_type>  (130) 
IC50

>  <standard_relation>  (130) 
=

>  <standard_value>  (130) 
200.0

>  <standard_units>  (130) 
nM

>  <target_pref_name>  (130) 
Androgen Receptor

>  <target_chembl_id>  (130) 
CHEMBL1871

>  <target_organism>  (130) 
Homo sapiens

>  <pchembl_median>  (130) 
6.88

$$$$
CHEMBL235601
     RDKit          2D

 19 20  0  0  0  0  0  0  0  0999 V2000
    3.0000    0.0000    0.0000 C   0  0  0  0  0  0  0  0  0  0  0  0
    1.5000    0.0000    0.0000 C   0  0  0  0  0  0  0  0  0  0  0  0
    0.7500   -1.2990    0.0000 C   0  0  0  0  0  0  0  0  0  0  0  0
   -0.7500   -1.2990    0.0000 C   0  0  0  0  0  0  0  0  0  0  0  0
   -1.5000    0.0000    0.0000 C   0  0  0  0  0  0  0  0  0  0  0  0
   -0.7500    1.2990    0.0000 C   0  0  0  0  0  0  0  0  0  0  0  0
   -1.5000    2.5981    0.0000 C   0  0  0  0  0  0  0  0  0  0  0  0
   -0.7500    3.8971    0.0000 C   0  0  0  0  0  0  0  0  0  0  0  0
   -1.5000    5.1962    0.0000 C   0  0  0  0  0  0  0  0  0  0  0  0
   -3.0000    5.1962    0.0000 C   0  0  0  0  0  0  0  0  0  0  0  0
   -3.7500    6.4952    0.0000 C   0  0  0  0  0  0  0  0  0  0  0  0
   -4.5000    7.7942    0.0000 N   0  0  0  0  0  0  0  0  0  0  0  0
   -3.7500    3.8971    0.0000 C   0  0  0  0  0  0  0  0  0  0  0  0
   -5.2500    3.8971    0.0000 C   0  0  0  0  0  0  0  0  0  0  0  0
   -6.7500    3.8971    0.0000 F   0  0  0  0  0  0  0  0  0  0  0  0
   -5.2500    2.3971    0.0000 F   0  0  0  0  0  0  0  0  0  0  0  0
   -5.2500    5.3971    0.0000 F   0  0  0  0  0  0  0  0  0  0  0  0
   -3.0000    2.5981    0.0000 C   0  0  0  0  0  0  0  0  0  0  0  0
    0.7500    1.2990    0.0000 C   0  0  0  0  0  0  0  0  0  0  0  0
  1  2  1  0
  2  3  2  0
  3  4  1  0
  4  5  2  0
  5  6  1  0
  6  7  1  0
  7  8  2  0
  8  9  1  0
  9 10  2  0
 10 11  1  0
 11 12  3  0
 10 13  1  0
 13 14  1  0
 14 15  1  0
 14 16  1  0
 14 17  1  0
 13 18  2  0
  6 19  2  0
 19  2  1  0
 18  7  1  0
M  END
>  <assay_chembl_id>  (131) 
CHEMBL899495

>  <assay_description>  (131) 
Displacement of [3H]DHT from human recombinant AR expressed in Sf9 cells

>  <parent_molecule_chembl_id>  (131) 
CHEMBL235601

>  <canonical_smiles>  (131) 
Cc1cccc(-c2ccc(C#N)c(C(F)(F)F)c2)c1

>  <standard_type>  (131) 
IC50

>  <standard_relation>  (131) 
=

>  <standard_value>  (131) 
1900.0

>  <standard_units>  (131) 
nM

>  <target_pref_name>  (131) 
Androgen Receptor

>  <target_chembl_id>  (131) 
CHEMBL1871

>  <target_organism>  (131) 
Homo sapiens

>  <pchembl_median>  (131) 
6.58

$$$$
CHEMBL235379
     RDKit          2D

 19 20  0  0  0  0  0  0  0  0999 V2000
    3.0000    0.0000    0.0000 C   0  0  0  0  0  0  0  0  0  0  0  0
    1.5000    0.0000    0.0000 C   0  0  0  0  0  0  0  0  0  0  0  0
    0.7500   -1.2990    0.0000 C   0  0  0  0  0  0  0  0  0  0  0  0
   -0.7500   -1.2990    0.0000 C   0  0  0  0  0  0  0  0  0  0  0  0
   -1.5000    0.0000    0.0000 C   0  0  0  0  0  0  0  0  0  0  0  0
   -0.7500    1.2990    0.0000 C   0  0  0  0  0  0  0  0  0  0  0  0
    0.7500    1.2990    0.0000 C   0  0  0  0  0  0  0  0  0  0  0  0
    1.5000    2.5981    0.0000 C   0  0  0  0  0  0  0  0  0  0  0  0
    3.0000    2.5981    0.0000 C   0  0  0  0  0  0  0  0  0  0  0  0
    3.7500    3.8971    0.0000 C   0  0  0  0  0  0  0  0  0  0  0  0
    3.0000    5.1962    0.0000 C   0  0  0  0  0  0  0  0  0  0  0  0
    3.7500    6.4952    0.0000 C   0  0  0  0  0  0  0  0  0  0  0  0
    4.5000    7.7942    0.0000 N   0  0  0  0  0  0  0  0  0  0  0  0
    1.5000    5.1962    0.0000 C   0  0  0  0  0  0  0  0  0  0  0  0
    0.7500    6.4952    0.0000 C   0  0  0  0  0  0  0  0  0  0  0  0
    0.0000    7.7942    0.0000 F   0  0  0  0  0  0  0  0  0  0  0  0
   -0.5490    5.7452    0.0000 F   0  0  0  0  0  0  0  0  0  0  0  0
    2.0490    7.2452    0.0000 F   0  0  0  0  0  0  0  0  0  0  0  0
    0.7500    3.8971    0.0000 C   0  0  0  0  0  0  0  0  0  0  0  0
  1  2  1  0
  2  3  2  0
  3  4  1  0
  4  5  2  0
  5  6  1  0
  6  7  2  0
  7  8  1  0
  8  9  2  0
  9 10  1  0
 10 11  2  0
 11 12  1  0
 12 13  3  0
 11 14  1  0
 14 15  1  0
 15 16  1  0
 15 17  1  0
 15 18  1  0
 14 19  2  0
  7  2  1  0
 19  8  1  0
M  END
>  <assay_chembl_id>  (132) 
CHEMBL899495

>  <assay_description>  (132) 
Displacement of [3H]DHT from human recombinant AR expressed in Sf9 cells

>  <parent_molecule_chembl_id>  (132) 
CHEMBL235379

>  <canonical_smiles>  (132) 
Cc1ccccc1-c1ccc(C#N)c(C(F)(F)F)c1

>  <standard_type>  (132) 
IC50

>  <standard_relation>  (132) 
=

>  <standard_value>  (132) 
146.0

>  <standard_units>  (132) 
nM

>  <target_pref_name>  (132) 
Androgen Receptor

>  <target_chembl_id>  (132) 
CHEMBL1871

>  <target_organism>  (132) 
Homo sapiens

>  <pchembl_median>  (132) 
6.45

$$$$
CHEMBL235378
     RDKit          2D

 19 20  0  0  0  0  0  0  0  0999 V2000
    4.5000    0.0000    0.0000 N   0  0  0  0  0  0  0  0  0  0  0  0
    3.0000    0.0000    0.0000 C   0  0  0  0  0  0  0  0  0  0  0  0
    1.5000    0.0000    0.0000 C   0  0  0  0  0  0  0  0  0  0  0  0
    0.7500   -1.2990    0.0000 C   0  0  0  0  0  0  0  0  0  0  0  0
   -0.7500   -1.2990    0.0000 C   0  0  0  0  0  0  0  0  0  0  0  0
   -1.5000    0.0000    0.0000 C   0  0  0  0  0  0  0  0  0  0  0  0
   -3.0000    0.0000    0.0000 C   0  0  0  0  0  0  0  0  0  0  0  0
   -3.7500    1.2990    0.0000 C   0  0  0  0  0  0  0  0  0  0  0  0
   -5.2500    1.2990    0.0000 C   0  0  0  0  0  0  0  0  0  0  0  0
   -6.0000    0.0000    0.0000 C   0  0  0  0  0  0  0  0  0  0  0  0
   -7.5000    0.0000    0.0000 O   0  0  0  0  0  0  0  0  0  0  0  0
   -5.2500   -1.2990    0.0000 C   0  0  0  0  0  0  0  0  0  0  0  0
   -3.7500   -1.2990    0.0000 C   0  0  0  0  0  0  0  0  0  0  0  0
   -0.7500    1.2990    0.0000 C   0  0  0  0  0  0  0  0  0  0  0  0
    0.7500    1.2990    0.0000 C   0  0  0  0  0  0  0  0  0  0  0  0
    1.5000    2.5981    0.0000 C   0  0  0  0  0  0  0  0  0  0  0  0
    2.2500    3.8971    0.0000 F   0  0  0  0  0  0  0  0  0  0  0  0
    0.2010    3.3481    0.0000 F   0  0  0  0  0  0  0  0  0  0  0  0
    2.7990    1.8481    0.0000 F   0  0  0  0  0  0  0  0  0  0  0  0
  1  2  3  0
  2  3  1  0
  3  4  2  0
  4  5  1  0
  5  6  2  0
  6  7  1  0
  7  8  2  0
  8  9  1  0
  9 10  2  0
 10 11  1  0
 10 12  1  0
 12 13  2  0
  6 14  1  0
 14 15  2  0
 15 16  1  0
 16 17  1  0
 16 18  1  0
 16 19  1  0
 15  3  1  0
 13  7  1  0
M  END
>  <assay_chembl_id>  (133) 
CHEMBL899495

>  <assay_description>  (133) 
Displacement of [3H]DHT from human recombinant AR expressed in Sf9 cells

>  <parent_molecule_chembl_id>  (133) 
CHEMBL235378

>  <canonical_smiles>  (133) 
N#Cc1ccc(-c2ccc(O)cc2)cc1C(F)(F)F

>  <standard_type>  (133) 
IC50

>  <standard_relation>  (133) 
=

>  <standard_value>  (133) 
61.2

>  <standard_units>  (133) 
nM

>  <target_pref_name>  (133) 
Androgen Receptor

>  <target_chembl_id>  (133) 
CHEMBL1871

>  <target_organism>  (133) 
Homo sapiens

>  <pchembl_median>  (133) 
6.12

$$$$
CHEMBL391549
     RDKit          2D

 19 20  0  0  0  0  0  0  0  0999 V2000
    4.5000    0.0000    0.0000 N   0  0  0  0  0  0  0  0  0  0  0  0
    3.0000    0.0000    0.0000 C   0  0  0  0  0  0  0  0  0  0  0  0
    1.5000    0.0000    0.0000 C   0  0  0  0  0  0  0  0  0  0  0  0
    0.7500   -1.2990    0.0000 C   0  0  0  0  0  0  0  0  0  0  0  0
   -0.7500   -1.2990    0.0000 C   0  0  0  0  0  0  0  0  0  0  0  0
   -1.5000    0.0000    0.0000 C   0  0  0  0  0  0  0  0  0  0  0  0
   -3.0000    0.0000    0.0000 C   0  0  0  0  0  0  0  0  0  0  0  0
   -3.7500    1.2990    0.0000 C   0  0  0  0  0  0  0  0  0  0  0  0
   -5.2500    1.2990    0.0000 C   0  0  0  0  0  0  0  0  0  0  0  0
   -6.0000    0.0000    0.0000 C   0  0  0  0  0  0  0  0  0  0  0  0
   -5.2500   -1.2990    0.0000 C   0  0  0  0  0  0  0  0  0  0  0  0
   -6.0000   -2.5981    0.0000 O   0  0  0  0  0  0  0  0  0  0  0  0
   -3.7500   -1.2990    0.0000 C   0  0  0  0  0  0  0  0  0  0  0  0
   -0.7500    1.2990    0.0000 C   0  0  0  0  0  0  0  0  0  0  0  0
    0.7500    1.2990    0.0000 C   0  0  0  0  0  0  0  0  0  0  0  0
    1.5000    2.5981    0.0000 C   0  0  0  0  0  0  0  0  0  0  0  0
    2.2500    3.8971    0.0000 F   0  0  0  0  0  0  0  0  0  0  0  0
    0.2010    3.3481    0.0000 F   0  0  0  0  0  0  0  0  0  0  0  0
    2.7990    1.8481    0.0000 F   0  0  0  0  0  0  0  0  0  0  0  0
  1  2  3  0
  2  3  1  0
  3  4  2  0
  4  5  1  0
  5  6  2  0
  6  7  1  0
  7  8  2  0
  8  9  1  0
  9 10  2  0
 10 11  1  0
 11 12  1  0
 11 13  2  0
  6 14  1  0
 14 15  2  0
 15 16  1  0
 16 17  1  0
 16 18  1  0
 16 19  1  0
 15  3  1  0
 13  7  1  0
M  END
>  <assay_chembl_id>  (134) 
CHEMBL899495

>  <assay_description>  (134) 
Displacement of [3H]DHT from human recombinant AR expressed in Sf9 cells

>  <parent_molecule_chembl_id>  (134) 
CHEMBL391549

>  <canonical_smiles>  (134) 
N#Cc1ccc(-c2cccc(O)c2)cc1C(F)(F)F

>  <standard_type>  (134) 
IC50

>  <standard_relation>  (134) 
=

>  <standard_value>  (134) 
229.0

>  <standard_units>  (134) 
nM

>  <target_pref_name>  (134) 
Androgen Receptor

>  <target_chembl_id>  (134) 
CHEMBL1871

>  <target_organism>  (134) 
Homo sapiens

>  <pchembl_median>  (134) 
6.34

$$$$
CHEMBL443579
     RDKit          2D

 20 21  0  0  0  0  0  0  0  0999 V2000
    3.7500   -1.2990    0.0000 C   0  0  0  0  0  0  0  0  0  0  0  0
    3.0000    0.0000    0.0000 O   0  0  0  0  0  0  0  0  0  0  0  0
    1.5000    0.0000    0.0000 C   0  0  0  0  0  0  0  0  0  0  0  0
    0.7500   -1.2990    0.0000 C   0  0  0  0  0  0  0  0  0  0  0  0
   -0.7500   -1.2990    0.0000 C   0  0  0  0  0  0  0  0  0  0  0  0
   -1.5000    0.0000    0.0000 C   0  0  0  0  0  0  0  0  0  0  0  0
   -0.7500    1.2990    0.0000 C   0  0  0  0  0  0  0  0  0  0  0  0
   -1.5000    2.5981    0.0000 C   0  0  0  0  0  0  0  0  0  0  0  0
   -0.7500    3.8971    0.0000 C   0  0  0  0  0  0  0  0  0  0  0  0
   -1.5000    5.1962    0.0000 C   0  0  0  0  0  0  0  0  0  0  0  0
   -3.0000    5.1962    0.0000 C   0  0  0  0  0  0  0  0  0  0  0  0
   -3.7500    6.4952    0.0000 C   0  0  0  0  0  0  0  0  0  0  0  0
   -4.5000    7.7942    0.0000 N   0  0  0  0  0  0  0  0  0  0  0  0
   -3.7500    3.8971    0.0000 C   0  0  0  0  0  0  0  0  0  0  0  0
   -5.2500    3.8971    0.0000 C   0  0  0  0  0  0  0  0  0  0  0  0
   -6.7500    3.8971    0.0000 F   0  0  0  0  0  0  0  0  0  0  0  0
   -5.2500    2.3971    0.0000 F   0  0  0  0  0  0  0  0  0  0  0  0
   -5.2500    5.3971    0.0000 F   0  0  0  0  0  0  0  0  0  0  0  0
   -3.0000    2.5981    0.0000 C   0  0  0  0  0  0  0  0  0  0  0  0
    0.7500    1.2990    0.0000 C   0  0  0  0  0  0  0  0  0  0  0  0
  1  2  1  0
  2  3  1  0
  3  4  2  0
  4  5  1  0
  5  6  2  0
  6  7  1  0
  7  8  1  0
  8  9  2  0
  9 10  1  0
 10 11  2  0
 11 12  1  0
 12 13  3  0
 11 14  1  0
 14 15  1  0
 15 16  1  0
 15 17  1  0
 15 18  1  0
 14 19  2  0
  7 20  2  0
 20  3  1  0
 19  8  1  0
M  END
>  <assay_chembl_id>  (135) 
CHEMBL899495

>  <assay_description>  (135) 
Displacement of [3H]DHT from human recombinant AR expressed in Sf9 cells

>  <parent_molecule_chembl_id>  (135) 
CHEMBL443579

>  <canonical_smiles>  (135) 
COc1cccc(-c2ccc(C#N)c(C(F)(F)F)c2)c1

>  <standard_type>  (135) 
IC50

>  <standard_relation>  (135) 
=

>  <standard_value>  (135) 
955.0

>  <standard_units>  (135) 
nM

>  <target_pref_name>  (135) 
Androgen Receptor

>  <target_chembl_id>  (135) 
CHEMBL1871

>  <target_organism>  (135) 
Homo sapiens

>  <pchembl_median>  (135) 
6.43

$$$$
CHEMBL238366
     RDKit          2D

 20 21  0  0  0  0  0  0  0  0999 V2000
    3.7500   -1.2990    0.0000 C   0  0  0  0  0  0  0  0  0  0  0  0
    3.0000    0.0000    0.0000 O   0  0  0  0  0  0  0  0  0  0  0  0
    1.5000    0.0000    0.0000 C   0  0  0  0  0  0  0  0  0  0  0  0
    0.7500   -1.2990    0.0000 C   0  0  0  0  0  0  0  0  0  0  0  0
   -0.7500   -1.2990    0.0000 C   0  0  0  0  0  0  0  0  0  0  0  0
   -1.5000    0.0000    0.0000 C   0  0  0  0  0  0  0  0  0  0  0  0
   -0.7500    1.2990    0.0000 C   0  0  0  0  0  0  0  0  0  0  0  0
    0.7500    1.2990    0.0000 C   0  0  0  0  0  0  0  0  0  0  0  0
    1.5000    2.5981    0.0000 C   0  0  0  0  0  0  0  0  0  0  0  0
    3.0000    2.5981    0.0000 C   0  0  0  0  0  0  0  0  0  0  0  0
    3.7500    3.8971    0.0000 C   0  0  0  0  0  0  0  0  0  0  0  0
    3.0000    5.1962    0.0000 C   0  0  0  0  0  0  0  0  0  0  0  0
    3.7500    6.4952    0.0000 C   0  0  0  0  0  0  0  0  0  0  0  0
    4.5000    7.7942    0.0000 N   0  0  0  0  0  0  0  0  0  0  0  0
    1.5000    5.1962    0.0000 C   0  0  0  0  0  0  0  0  0  0  0  0
    0.7500    6.4952    0.0000 C   0  0  0  0  0  0  0  0  0  0  0  0
    0.0000    7.7942    0.0000 F   0  0  0  0  0  0  0  0  0  0  0  0
   -0.5490    5.7452    0.0000 F   0  0  0  0  0  0  0  0  0  0  0  0
    2.0490    7.2452    0.0000 F   0  0  0  0  0  0  0  0  0  0  0  0
    0.7500    3.8971    0.0000 C   0  0  0  0  0  0  0  0  0  0  0  0
  1  2  1  0
  2  3  1  0
  3  4  2  0
  4  5  1  0
  5  6  2  0
  6  7  1  0
  7  8  2  0
  8  9  1  0
  9 10  2  0
 10 11  1  0
 11 12  2  0
 12 13  1  0
 13 14  3  0
 12 15  1  0
 15 16  1  0
 16 17  1  0
 16 18  1  0
 16 19  1  0
 15 20  2  0
  8  3  1  0
 20  9  1  0
M  END
>  <assay_chembl_id>  (136) 
CHEMBL899495

>  <assay_description>  (136) 
Displacement of [3H]DHT from human recombinant AR expressed in Sf9 cells

>  <parent_molecule_chembl_id>  (136) 
CHEMBL238366

>  <canonical_smiles>  (136) 
COc1ccccc1-c1ccc(C#N)c(C(F)(F)F)c1

>  <standard_type>  (136) 
IC50

>  <standard_relation>  (136) 
=

>  <standard_value>  (136) 
37.0

>  <standard_units>  (136) 
nM

>  <target_pref_name>  (136) 
Androgen Receptor

>  <target_chembl_id>  (136) 
CHEMBL1871

>  <target_organism>  (136) 
Homo sapiens

>  <pchembl_median>  (136) 
7.17

$$$$
CHEMBL236699
     RDKit          2D

 43 46  0  0  0  0  0  0  0  0999 V2000
   -4.4918   -5.3529    0.0000 C   0  0  0  0  0  0  0  0  0  0  0  0
   -3.0000   -5.1962    0.0000 C   0  0  0  0  0  0  0  0  0  0  0  0
   -3.7500   -3.8971    0.0000 C   0  0  0  0  0  0  0  0  0  0  0  0
   -3.0000   -2.5981    0.0000 C   0  0  0  0  0  0  0  0  0  0  0  0
   -1.5000   -2.5981    0.0000 C   0  0  0  0  0  0  0  0  0  0  0  0
   -0.7500   -3.8971    0.0000 C   0  0  0  0  0  0  0  0  0  0  0  0
   -1.5000   -5.1962    0.0000 C   0  0  0  0  0  0  0  0  0  0  0  0
   -1.0365   -6.6227    0.0000 C   0  0  0  0  0  0  0  0  0  0  0  0
   -2.2500   -7.5044    0.0000 C   0  0  0  0  0  0  0  0  0  0  0  0
   -3.4635   -6.6227    0.0000 C   0  0  0  0  0  0  0  0  0  0  0  0
   -4.8901   -7.0863    0.0000 O   0  0  0  0  0  0  0  0  0  0  0  0
    0.7500   -3.8971    0.0000 C   0  0  0  0  0  0  0  0  0  0  0  0
    1.5000   -5.1962    0.0000 C   0  0  0  0  0  0  0  0  0  0  0  0
    3.0000   -5.1962    0.0000 C   0  0  0  0  0  0  0  0  0  0  0  0
    3.7500   -6.4952    0.0000 C   0  0  0  0  0  0  0  0  0  0  0  0
    5.2500   -6.4952    0.0000 C   0  0  0  0  0  0  0  0  0  0  0  0
    6.0000   -7.7942    0.0000 C   0  0  0  0  0  0  0  0  0  0  0  0
    7.5000   -7.7942    0.0000 C   0  0  0  0  0  0  0  0  0  0  0  0
    8.2500   -9.0933    0.0000 C   0  0  0  0  0  0  0  0  0  0  0  0
    9.7500   -9.0933    0.0000 C   0  0  0  0  0  0  0  0  0  0  0  0
   10.5000  -10.3923    0.0000 C   0  0  0  0  0  0  0  0  0  0  0  0
   12.0000  -10.3923    0.0000 C   0  0  0  0  0  0  0  0  0  0  0  0
   12.7500  -11.6913    0.0000 C   0  0  0  0  0  0  0  0  0  0  0  0
   14.2500  -11.6913    0.0000 C   0  0  0  0  0  0  0  0  0  0  0  0
   15.0000  -12.9904    0.0000 C   0  0  0  0  0  0  0  0  0  0  0  0
   16.2990  -12.2404    0.0000 F   0  0  0  0  0  0  0  0  0  0  0  0
   13.7010  -13.7404    0.0000 F   0  0  0  0  0  0  0  0  0  0  0  0
   15.7500  -14.2894    0.0000 C   0  0  0  0  0  0  0  0  0  0  0  0
   16.5000  -15.5885    0.0000 F   0  0  0  0  0  0  0  0  0  0  0  0
   14.4510  -15.0394    0.0000 F   0  0  0  0  0  0  0  0  0  0  0  0
   17.0490  -13.5394    0.0000 F   0  0  0  0  0  0  0  0  0  0  0  0
    9.7500  -11.6913    0.0000 C   0  0  0  0  0  0  0  0  0  0  0  0
    8.2500  -11.6913    0.0000 O   0  0  0  0  0  0  0  0  0  0  0  0
   10.5000  -12.9904    0.0000 O   0  0  0  0  0  0  0  0  0  0  0  0
    1.5000   -2.5981    0.0000 C   0  0  0  0  0  0  0  0  0  0  0  0
    0.7500   -1.2990    0.0000 C   0  0  0  0  0  0  0  0  0  0  0  0
    1.5000    0.0000    0.0000 C   0  0  0  0  0  0  0  0  0  0  0  0
    0.7500    1.2990    0.0000 C   0  0  0  0  0  0  0  0  0  0  0  0
    1.5000    2.5981    0.0000 O   0  0  0  0  0  0  0  0  0  0  0  0
   -0.7500    1.2990    0.0000 C   0  0  0  0  0  0  0  0  0  0  0  0
   -1.5000    0.0000    0.0000 C   0  0  0  0  0  0  0  0  0  0  0  0
   -0.7500   -1.2990    0.0000 C   0  0  0  0  0  0  0  0  0  0  0  0
   -2.2500   -1.2990    0.0000 C   0  0  0  0  0  0  0  0  0  0  0  0
  2  1  1  6
  2  3  1  0
  3  4  1  0
  5  4  1  6
  5  6  1  0
  6  7  1  0
  7  8  1  6
  8  9  1  0
  9 10  1  0
 10 11  1  6
  6 12  1  1
 12 13  1  1
 13 14  1  0
 14 15  1  0
 15 16  1  0
 16 17  1  0
 17 18  1  0
 18 19  1  0
 19 20  1  0
 20 21  1  0
 21 22  1  0
 22 23  1  0
 23 24  1  0
 24 25  1  0
 25 26  1  0
 25 27  1  0
 25 28  1  0
 28 29  1  0
 28 30  1  0
 28 31  1  0
 21 32  1  0
 32 33  2  0
 32 34  1  0
 12 35  1  0
 36 35  1  6
 36 37  1  0
 37 38  1  0
 38 39  2  0
 38 40  1  0
 40 41  1  0
 41 42  1  0
 42 43  1  6
  7  2  1  0
 42 36  1  0
 10  2  1  0
 42  5  1  0
M  END
>  <assay_chembl_id>  (137) 
CHEMBL899659

>  <assay_description>  (137) 
Displacement of [3H]mibolerone from human androgen receptor expressed in CHOK1 cells

>  <parent_molecule_chembl_id>  (137) 
CHEMBL236699

>  <canonical_smiles>  (137) 
C[C@]12CC[C@H]3[C@H]([C@@H]1CC[C@@H]2O)[C@H](CCCCCCCCC(CCCC(F)(F)C(F)(F)F)C(=O)O)C[C@H]1CC(=O)CC[C@@]13C

>  <standard_type>  (137) 
IC50

>  <standard_relation>  (137) 
=

>  <standard_value>  (137) 
410.0

>  <standard_units>  (137) 
nM

>  <target_pref_name>  (137) 
Androgen Receptor

>  <target_chembl_id>  (137) 
CHEMBL1871

>  <target_organism>  (137) 
Homo sapiens

>  <pchembl_median>  (137) 
5.48

$$$$
CHEMBL235872
     RDKit          2D

 41 45  0  0  0  0  0  0  0  0999 V2000
    4.2135   -7.9218    0.0000 C   0  0  0  0  0  0  0  0  0  0  0  0
    3.4635   -6.6227    0.0000 C   0  0  0  0  0  0  0  0  0  0  0  0
    4.8980   -6.1842    0.0000 O   0  0  0  0  0  0  0  0  0  0  0  0
    2.2500   -7.5044    0.0000 C   0  0  0  0  0  0  0  0  0  0  0  0
    1.0365   -6.6227    0.0000 C   0  0  0  0  0  0  0  0  0  0  0  0
    1.5000   -5.1962    0.0000 C   0  0  0  0  0  0  0  0  0  0  0  0
    0.7500   -3.8971    0.0000 C   0  0  0  0  0  0  0  0  0  0  0  0
    1.5000   -2.5981    0.0000 C   0  0  0  0  0  0  0  0  0  0  0  0
    3.0000   -2.5981    0.0000 C   0  0  0  0  0  0  0  0  0  0  0  0
    3.7500   -3.8971    0.0000 C   0  0  0  0  0  0  0  0  0  0  0  0
    3.0000   -5.1962    0.0000 C   0  0  0  0  0  0  0  0  0  0  0  0
    4.4998   -5.1699    0.0000 C   0  0  0  0  0  0  0  0  0  0  0  0
    0.7500   -1.2990    0.0000 C   0  0  0  0  0  0  0  0  0  0  0  0
    2.2500   -1.2990    0.0000 C   0  0  0  0  0  0  0  0  0  0  0  0
    1.5000    0.0000    0.0000 C   0  0  0  0  0  0  0  0  0  0  0  0
    0.7500    1.2990    0.0000 C   0  0  0  0  0  0  0  0  0  0  0  0
   -0.7500    1.2990    0.0000 C   0  0  0  0  0  0  0  0  0  0  0  0
   -1.5000    2.5981    0.0000 O   0  0  0  0  0  0  0  0  0  0  0  0
   -1.5000    0.0000    0.0000 C   0  0  0  0  0  0  0  0  0  0  0  0
   -0.7500   -1.2990    0.0000 C   0  0  0  0  0  0  0  0  0  0  0  0
   -1.5000   -2.5981    0.0000 C   0  0  0  0  0  0  0  0  0  0  0  0
   -0.7500   -3.8971    0.0000 C   0  0  0  0  0  0  0  0  0  0  0  0
   -1.5000   -5.1962    0.0000 C   0  0  0  0  0  0  0  0  0  0  0  0
   -3.0000   -5.1962    0.0000 C   0  0  0  0  0  0  0  0  0  0  0  0
   -3.7500   -6.4952    0.0000 C   0  0  0  0  0  0  0  0  0  0  0  0
   -5.2500   -6.4952    0.0000 C   0  0  0  0  0  0  0  0  0  0  0  0
   -6.0000   -7.7942    0.0000 C   0  0  0  0  0  0  0  0  0  0  0  0
   -7.5000   -7.7942    0.0000 C   0  0  0  0  0  0  0  0  0  0  0  0
   -8.2500   -9.0933    0.0000 C   0  0  0  0  0  0  0  0  0  0  0  0
   -7.5000  -10.3923    0.0000 C   0  0  0  0  0  0  0  0  0  0  0  0
   -6.0000  -10.3923    0.0000 C   0  0  0  0  0  0  0  0  0  0  0  0
   -5.2500  -11.6913    0.0000 O   0  0  0  0  0  0  0  0  0  0  0  0
   -6.0000  -12.9904    0.0000 C   0  0  0  0  0  0  0  0  0  0  0  0
   -5.2500  -14.2894    0.0000 C   0  0  0  0  0  0  0  0  0  0  0  0
   -6.0000  -15.5885    0.0000 C   0  0  0  0  0  0  0  0  0  0  0  0
   -5.2500  -16.8875    0.0000 C   0  0  0  0  0  0  0  0  0  0  0  0
   -6.0000  -18.1865    0.0000 C   0  0  0  0  0  0  0  0  0  0  0  0
   -5.2500  -19.4856    0.0000 C   0  0  0  0  0  0  0  0  0  0  0  0
   -3.7500  -19.4856    0.0000 O   0  0  0  0  0  0  0  0  0  0  0  0
   -6.0000  -20.7846    0.0000 O   0  0  0  0  0  0  0  0  0  0  0  0
   -5.2500   -9.0933    0.0000 C   0  0  0  0  0  0  0  0  0  0  0  0
  2  1  1  6
  2  3  1  0
  2  4  1  0
  4  5  1  0
  6  5  1  1
  6  7  1  0
  7  8  1  0
  8  9  1  1
  9 10  1  0
 10 11  1  0
 11 12  1  1
  8 13  1  0
 13 14  1  1
 13 15  1  0
 15 16  1  0
 16 17  1  0
 17 18  2  0
 17 19  1  0
 19 20  2  0
 20 21  1  0
 21 22  1  0
 22 23  1  6
 23 24  1  0
 24 25  1  0
 25 26  1  0
 26 27  1  0
 27 28  2  0
 28 29  1  0
 29 30  2  0
 30 31  1  0
 31 32  1  0
 32 33  1  0
 33 34  1  0
 34 35  1  0
 35 36  1  0
 36 37  1  0
 37 38  1  0
 38 39  2  0
 38 40  1  0
 31 41  2  0
 11  2  1  0
 20 13  1  0
 41 27  1  0
 11  6  1  0
  7 22  1  6
M  END
>  <assay_chembl_id>  (138) 
CHEMBL899659

>  <assay_description>  (138) 
Displacement of [3H]mibolerone from human androgen receptor expressed in CHOK1 cells

>  <parent_molecule_chembl_id>  (138) 
CHEMBL235872

>  <canonical_smiles>  (138) 
C[C@]1(O)CC[C@H]2[C@H]3[C@H](CC[C@@]21C)[C@@]1(C)CCC(=O)C=C1C[C@H]3CCCCc1cccc(OCCCCCC(=O)O)c1

>  <standard_type>  (138) 
IC50

>  <standard_relation>  (138) 
=

>  <standard_value>  (138) 
120.0

>  <standard_units>  (138) 
nM

>  <target_pref_name>  (138) 
Androgen Receptor

>  <target_chembl_id>  (138) 
CHEMBL1871

>  <target_organism>  (138) 
Homo sapiens

>  <pchembl_median>  (138) 
6.8

$$$$
CHEMBL235811
     RDKit          2D

 40 44  0  0  0  0  0  0  0  0999 V2000
    4.2135   -7.9218    0.0000 C   0  0  0  0  0  0  0  0  0  0  0  0
    3.4635   -6.6227    0.0000 C   0  0  0  0  0  0  0  0  0  0  0  0
    4.8980   -6.1842    0.0000 O   0  0  0  0  0  0  0  0  0  0  0  0
    2.2500   -7.5044    0.0000 C   0  0  0  0  0  0  0  0  0  0  0  0
    1.0365   -6.6227    0.0000 C   0  0  0  0  0  0  0  0  0  0  0  0
    1.5000   -5.1962    0.0000 C   0  0  0  0  0  0  0  0  0  0  0  0
    0.7500   -3.8971    0.0000 C   0  0  0  0  0  0  0  0  0  0  0  0
    1.5000   -2.5981    0.0000 C   0  0  0  0  0  0  0  0  0  0  0  0
    3.0000   -2.5981    0.0000 C   0  0  0  0  0  0  0  0  0  0  0  0
    3.7500   -3.8971    0.0000 C   0  0  0  0  0  0  0  0  0  0  0  0
    3.0000   -5.1962    0.0000 C   0  0  0  0  0  0  0  0  0  0  0  0
    4.4998   -5.1699    0.0000 C   0  0  0  0  0  0  0  0  0  0  0  0
    0.7500   -1.2990    0.0000 C   0  0  0  0  0  0  0  0  0  0  0  0
    2.2500   -1.2990    0.0000 C   0  0  0  0  0  0  0  0  0  0  0  0
    1.5000    0.0000    0.0000 C   0  0  0  0  0  0  0  0  0  0  0  0
    0.7500    1.2990    0.0000 C   0  0  0  0  0  0  0  0  0  0  0  0
   -0.7500    1.2990    0.0000 C   0  0  0  0  0  0  0  0  0  0  0  0
   -1.5000    2.5981    0.0000 O   0  0  0  0  0  0  0  0  0  0  0  0
   -1.5000    0.0000    0.0000 C   0  0  0  0  0  0  0  0  0  0  0  0
   -0.7500   -1.2990    0.0000 C   0  0  0  0  0  0  0  0  0  0  0  0
   -1.5000   -2.5981    0.0000 C   0  0  0  0  0  0  0  0  0  0  0  0
   -0.7500   -3.8971    0.0000 C   0  0  0  0  0  0  0  0  0  0  0  0
   -1.5000   -5.1962    0.0000 C   0  0  0  0  0  0  0  0  0  0  0  0
   -3.0000   -5.1962    0.0000 C   0  0  0  0  0  0  0  0  0  0  0  0
   -3.7500   -6.4952    0.0000 C   0  0  0  0  0  0  0  0  0  0  0  0
   -5.2500   -6.4952    0.0000 C   0  0  0  0  0  0  0  0  0  0  0  0
   -6.0000   -7.7942    0.0000 C   0  0  0  0  0  0  0  0  0  0  0  0
   -7.5000   -7.7942    0.0000 C   0  0  0  0  0  0  0  0  0  0  0  0
   -8.2500   -9.0933    0.0000 C   0  0  0  0  0  0  0  0  0  0  0  0
   -7.5000  -10.3923    0.0000 C   0  0  0  0  0  0  0  0  0  0  0  0
   -6.0000  -10.3923    0.0000 C   0  0  0  0  0  0  0  0  0  0  0  0
   -5.2500  -11.6913    0.0000 O   0  0  0  0  0  0  0  0  0  0  0  0
   -6.0000  -12.9904    0.0000 C   0  0  0  0  0  0  0  0  0  0  0  0
   -5.2500  -14.2894    0.0000 C   0  0  0  0  0  0  0  0  0  0  0  0
   -6.0000  -15.5885    0.0000 C   0  0  0  0  0  0  0  0  0  0  0  0
   -5.2500  -16.8875    0.0000 C   0  0  0  0  0  0  0  0  0  0  0  0
   -6.0000  -18.1865    0.0000 C   0  0  0  0  0  0  0  0  0  0  0  0
   -7.5000  -18.1865    0.0000 O   0  0  0  0  0  0  0  0  0  0  0  0
   -5.2500  -19.4856    0.0000 O   0  0  0  0  0  0  0  0  0  0  0  0
   -5.2500   -9.0933    0.0000 C   0  0  0  0  0  0  0  0  0  0  0  0
  2  1  1  6
  2  3  1  0
  2  4  1  0
  4  5  1  0
  6  5  1  1
  6  7  1  0
  7  8  1  0
  8  9  1  1
  9 10  1  0
 10 11  1  0
 11 12  1  1
  8 13  1  0
 13 14  1  1
 13 15  1  0
 15 16  1  0
 16 17  1  0
 17 18  2  0
 17 19  1  0
 19 20  2  0
 20 21  1  0
 21 22  1  0
 22 23  1  6
 23 24  1  0
 24 25  1  0
 25 26  1  0
 26 27  1  0
 27 28  2  0
 28 29  1  0
 29 30  2  0
 30 31  1  0
 31 32  1  0
 32 33  1  0
 33 34  1  0
 34 35  1  0
 35 36  1  0
 36 37  1  0
 37 38  2  0
 37 39  1  0
 31 40  2  0
 11  2  1  0
 20 13  1  0
 40 27  1  0
 11  6  1  0
  7 22  1  6
M  END
>  <assay_chembl_id>  (139) 
CHEMBL899659

>  <assay_description>  (139) 
Displacement of [3H]mibolerone from human androgen receptor expressed in CHOK1 cells

>  <parent_molecule_chembl_id>  (139) 
CHEMBL235811

>  <canonical_smiles>  (139) 
C[C@]1(O)CC[C@H]2[C@H]3[C@H](CC[C@@]21C)[C@@]1(C)CCC(=O)C=C1C[C@H]3CCCCc1cccc(OCCCCC(=O)O)c1

>  <standard_type>  (139) 
IC50

>  <standard_relation>  (139) 
=

>  <standard_value>  (139) 
350.0

>  <standard_units>  (139) 
nM

>  <target_pref_name>  (139) 
Androgen Receptor

>  <target_chembl_id>  (139) 
CHEMBL1871

>  <target_organism>  (139) 
Homo sapiens

>  <pchembl_median>  (139) 
6.96

$$$$
CHEMBL235871
     RDKit          2D

 39 43  0  0  0  0  0  0  0  0999 V2000
    4.2135   -7.9218    0.0000 C   0  0  0  0  0  0  0  0  0  0  0  0
    3.4635   -6.6227    0.0000 C   0  0  0  0  0  0  0  0  0  0  0  0
    4.8980   -6.1842    0.0000 O   0  0  0  0  0  0  0  0  0  0  0  0
    2.2500   -7.5044    0.0000 C   0  0  0  0  0  0  0  0  0  0  0  0
    1.0365   -6.6227    0.0000 C   0  0  0  0  0  0  0  0  0  0  0  0
    1.5000   -5.1962    0.0000 C   0  0  0  0  0  0  0  0  0  0  0  0
    0.7500   -3.8971    0.0000 C   0  0  0  0  0  0  0  0  0  0  0  0
    1.5000   -2.5981    0.0000 C   0  0  0  0  0  0  0  0  0  0  0  0
    3.0000   -2.5981    0.0000 C   0  0  0  0  0  0  0  0  0  0  0  0
    3.7500   -3.8971    0.0000 C   0  0  0  0  0  0  0  0  0  0  0  0
    3.0000   -5.1962    0.0000 C   0  0  0  0  0  0  0  0  0  0  0  0
    4.4998   -5.1699    0.0000 C   0  0  0  0  0  0  0  0  0  0  0  0
    0.7500   -1.2990    0.0000 C   0  0  0  0  0  0  0  0  0  0  0  0
    2.2500   -1.2990    0.0000 C   0  0  0  0  0  0  0  0  0  0  0  0
    1.5000    0.0000    0.0000 C   0  0  0  0  0  0  0  0  0  0  0  0
    0.7500    1.2990    0.0000 C   0  0  0  0  0  0  0  0  0  0  0  0
   -0.7500    1.2990    0.0000 C   0  0  0  0  0  0  0  0  0  0  0  0
   -1.5000    2.5981    0.0000 O   0  0  0  0  0  0  0  0  0  0  0  0
   -1.5000    0.0000    0.0000 C   0  0  0  0  0  0  0  0  0  0  0  0
   -0.7500   -1.2990    0.0000 C   0  0  0  0  0  0  0  0  0  0  0  0
   -1.5000   -2.5981    0.0000 C   0  0  0  0  0  0  0  0  0  0  0  0
   -0.7500   -3.8971    0.0000 C   0  0  0  0  0  0  0  0  0  0  0  0
   -1.5000   -5.1962    0.0000 C   0  0  0  0  0  0  0  0  0  0  0  0
   -3.0000   -5.1962    0.0000 C   0  0  0  0  0  0  0  0  0  0  0  0
   -3.7500   -6.4952    0.0000 C   0  0  0  0  0  0  0  0  0  0  0  0
   -5.2500   -6.4952    0.0000 C   0  0  0  0  0  0  0  0  0  0  0  0
   -6.0000   -7.7942    0.0000 C   0  0  0  0  0  0  0  0  0  0  0  0
   -7.5000   -7.7942    0.0000 C   0  0  0  0  0  0  0  0  0  0  0  0
   -8.2500   -9.0933    0.0000 C   0  0  0  0  0  0  0  0  0  0  0  0
   -7.5000  -10.3923    0.0000 C   0  0  0  0  0  0  0  0  0  0  0  0
   -6.0000  -10.3923    0.0000 C   0  0  0  0  0  0  0  0  0  0  0  0
   -5.2500  -11.6913    0.0000 O   0  0  0  0  0  0  0  0  0  0  0  0
   -6.0000  -12.9904    0.0000 C   0  0  0  0  0  0  0  0  0  0  0  0
   -5.2500  -14.2894    0.0000 C   0  0  0  0  0  0  0  0  0  0  0  0
   -6.0000  -15.5885    0.0000 C   0  0  0  0  0  0  0  0  0  0  0  0
   -5.2500  -16.8875    0.0000 C   0  0  0  0  0  0  0  0  0  0  0  0
   -3.7500  -16.8875    0.0000 O   0  0  0  0  0  0  0  0  0  0  0  0
   -6.0000  -18.1865    0.0000 O   0  0  0  0  0  0  0  0  0  0  0  0
   -5.2500   -9.0933    0.0000 C   0  0  0  0  0  0  0  0  0  0  0  0
  2  1  1  6
  2  3  1  0
  2  4  1  0
  4  5  1  0
  6  5  1  1
  6  7  1  0
  7  8  1  0
  8  9  1  1
  9 10  1  0
 10 11  1  0
 11 12  1  1
  8 13  1  0
 13 14  1  1
 13 15  1  0
 15 16  1  0
 16 17  1  0
 17 18  2  0
 17 19  1  0
 19 20  2  0
 20 21  1  0
 21 22  1  0
 22 23  1  6
 23 24  1  0
 24 25  1  0
 25 26  1  0
 26 27  1  0
 27 28  2  0
 28 29  1  0
 29 30  2  0
 30 31  1  0
 31 32  1  0
 32 33  1  0
 33 34  1  0
 34 35  1  0
 35 36  1  0
 36 37  2  0
 36 38  1  0
 31 39  2  0
 11  2  1  0
 20 13  1  0
 39 27  1  0
 11  6  1  0
  7 22  1  6
M  END
>  <assay_chembl_id>  (140) 
CHEMBL899659

>  <assay_description>  (140) 
Displacement of [3H]mibolerone from human androgen receptor expressed in CHOK1 cells

>  <parent_molecule_chembl_id>  (140) 
CHEMBL235871

>  <canonical_smiles>  (140) 
C[C@]1(O)CC[C@H]2[C@H]3[C@H](CC[C@@]21C)[C@@]1(C)CCC(=O)C=C1C[C@H]3CCCCc1cccc(OCCCC(=O)O)c1

>  <standard_type>  (140) 
IC50

>  <standard_relation>  (140) 
=

>  <standard_value>  (140) 
670.0

>  <standard_units>  (140) 
nM

>  <target_pref_name>  (140) 
Androgen Receptor

>  <target_chembl_id>  (140) 
CHEMBL1871

>  <target_organism>  (140) 
Homo sapiens

>  <pchembl_median>  (140) 
5.92

$$$$
CHEMBL238001
     RDKit          2D

 40 44  0  0  0  0  0  0  0  0999 V2000
    4.2135   -7.9218    0.0000 C   0  0  0  0  0  0  0  0  0  0  0  0
    3.4635   -6.6227    0.0000 C   0  0  0  0  0  0  0  0  0  0  0  0
    4.8980   -6.1842    0.0000 O   0  0  0  0  0  0  0  0  0  0  0  0
    2.2500   -7.5044    0.0000 C   0  0  0  0  0  0  0  0  0  0  0  0
    1.0365   -6.6227    0.0000 C   0  0  0  0  0  0  0  0  0  0  0  0
    1.5000   -5.1962    0.0000 C   0  0  0  0  0  0  0  0  0  0  0  0
    0.7500   -3.8971    0.0000 C   0  0  0  0  0  0  0  0  0  0  0  0
    1.5000   -2.5981    0.0000 C   0  0  0  0  0  0  0  0  0  0  0  0
    3.0000   -2.5981    0.0000 C   0  0  0  0  0  0  0  0  0  0  0  0
    3.7500   -3.8971    0.0000 C   0  0  0  0  0  0  0  0  0  0  0  0
    3.0000   -5.1962    0.0000 C   0  0  0  0  0  0  0  0  0  0  0  0
    4.4998   -5.1699    0.0000 C   0  0  0  0  0  0  0  0  0  0  0  0
    0.7500   -1.2990    0.0000 C   0  0  0  0  0  0  0  0  0  0  0  0
    2.2500   -1.2990    0.0000 C   0  0  0  0  0  0  0  0  0  0  0  0
    1.5000    0.0000    0.0000 C   0  0  0  0  0  0  0  0  0  0  0  0
    0.7500    1.2990    0.0000 C   0  0  0  0  0  0  0  0  0  0  0  0
   -0.7500    1.2990    0.0000 C   0  0  0  0  0  0  0  0  0  0  0  0
   -1.5000    2.5981    0.0000 O   0  0  0  0  0  0  0  0  0  0  0  0
   -1.5000    0.0000    0.0000 C   0  0  0  0  0  0  0  0  0  0  0  0
   -0.7500   -1.2990    0.0000 C   0  0  0  0  0  0  0  0  0  0  0  0
   -1.5000   -2.5981    0.0000 C   0  0  0  0  0  0  0  0  0  0  0  0
   -0.7500   -3.8971    0.0000 C   0  0  0  0  0  0  0  0  0  0  0  0
   -1.5000   -5.1962    0.0000 C   0  0  0  0  0  0  0  0  0  0  0  0
   -3.0000   -5.1962    0.0000 C   0  0  0  0  0  0  0  0  0  0  0  0
   -3.7500   -6.4952    0.0000 C   0  0  0  0  0  0  0  0  0  0  0  0
   -5.2500   -6.4952    0.0000 C   0  0  0  0  0  0  0  0  0  0  0  0
   -6.0000   -7.7942    0.0000 C   0  0  0  0  0  0  0  0  0  0  0  0
   -7.5000   -7.7942    0.0000 C   0  0  0  0  0  0  0  0  0  0  0  0
   -8.2500   -9.0933    0.0000 C   0  0  0  0  0  0  0  0  0  0  0  0
   -7.5000  -10.3923    0.0000 C   0  0  0  0  0  0  0  0  0  0  0  0
   -8.2500  -11.6913    0.0000 O   0  0  0  0  0  0  0  0  0  0  0  0
   -9.7500  -11.6913    0.0000 C   0  0  0  0  0  0  0  0  0  0  0  0
  -10.5000  -12.9904    0.0000 C   0  0  0  0  0  0  0  0  0  0  0  0
  -12.0000  -12.9904    0.0000 C   0  0  0  0  0  0  0  0  0  0  0  0
  -12.7500  -14.2894    0.0000 C   0  0  0  0  0  0  0  0  0  0  0  0
  -14.2500  -14.2894    0.0000 C   0  0  0  0  0  0  0  0  0  0  0  0
  -15.0000  -12.9904    0.0000 O   0  0  0  0  0  0  0  0  0  0  0  0
  -15.0000  -15.5885    0.0000 O   0  0  0  0  0  0  0  0  0  0  0  0
   -6.0000  -10.3923    0.0000 C   0  0  0  0  0  0  0  0  0  0  0  0
   -5.2500   -9.0933    0.0000 C   0  0  0  0  0  0  0  0  0  0  0  0
  2  1  1  6
  2  3  1  0
  2  4  1  0
  4  5  1  0
  6  5  1  1
  6  7  1  0
  7  8  1  0
  8  9  1  1
  9 10  1  0
 10 11  1  0
 11 12  1  1
  8 13  1  0
 13 14  1  1
 13 15  1  0
 15 16  1  0
 16 17  1  0
 17 18  2  0
 17 19  1  0
 19 20  2  0
 20 21  1  0
 21 22  1  0
 22 23  1  6
 23 24  1  0
 24 25  1  0
 25 26  1  0
 26 27  1  0
 27 28  2  0
 28 29  1  0
 29 30  2  0
 30 31  1  0
 31 32  1  0
 32 33  1  0
 33 34  1  0
 34 35  1  0
 35 36  1  0
 36 37  2  0
 36 38  1  0
 30 39  1  0
 39 40  2  0
 11  2  1  0
 20 13  1  0
 40 27  1  0
 11  6  1  0
  7 22  1  6
M  END
>  <assay_chembl_id>  (141) 
CHEMBL899659

>  <assay_description>  (141) 
Displacement of [3H]mibolerone from human androgen receptor expressed in CHOK1 cells

>  <parent_molecule_chembl_id>  (141) 
CHEMBL238001

>  <canonical_smiles>  (141) 
C[C@]1(O)CC[C@H]2[C@H]3[C@H](CC[C@@]21C)[C@@]1(C)CCC(=O)C=C1C[C@H]3CCCCc1ccc(OCCCCC(=O)O)cc1

>  <standard_type>  (141) 
IC50

>  <standard_relation>  (141) 
=

>  <standard_value>  (141) 
96.0

>  <standard_units>  (141) 
nM

>  <target_pref_name>  (141) 
Androgen Receptor

>  <target_chembl_id>  (141) 
CHEMBL1871

>  <target_organism>  (141) 
Homo sapiens

>  <pchembl_median>  (141) 
5.23

$$$$
CHEMBL237999
     RDKit          2D

 39 43  0  0  0  0  0  0  0  0999 V2000
    4.2135   -7.9218    0.0000 C   0  0  0  0  0  0  0  0  0  0  0  0
    3.4635   -6.6227    0.0000 C   0  0  0  0  0  0  0  0  0  0  0  0
    4.8980   -6.1842    0.0000 O   0  0  0  0  0  0  0  0  0  0  0  0
    2.2500   -7.5044    0.0000 C   0  0  0  0  0  0  0  0  0  0  0  0
    1.0365   -6.6227    0.0000 C   0  0  0  0  0  0  0  0  0  0  0  0
    1.5000   -5.1962    0.0000 C   0  0  0  0  0  0  0  0  0  0  0  0
    0.7500   -3.8971    0.0000 C   0  0  0  0  0  0  0  0  0  0  0  0
    1.5000   -2.5981    0.0000 C   0  0  0  0  0  0  0  0  0  0  0  0
    3.0000   -2.5981    0.0000 C   0  0  0  0  0  0  0  0  0  0  0  0
    3.7500   -3.8971    0.0000 C   0  0  0  0  0  0  0  0  0  0  0  0
    3.0000   -5.1962    0.0000 C   0  0  0  0  0  0  0  0  0  0  0  0
    4.4998   -5.1699    0.0000 C   0  0  0  0  0  0  0  0  0  0  0  0
    0.7500   -1.2990    0.0000 C   0  0  0  0  0  0  0  0  0  0  0  0
    2.2500   -1.2990    0.0000 C   0  0  0  0  0  0  0  0  0  0  0  0
    1.5000    0.0000    0.0000 C   0  0  0  0  0  0  0  0  0  0  0  0
    0.7500    1.2990    0.0000 C   0  0  0  0  0  0  0  0  0  0  0  0
   -0.7500    1.2990    0.0000 C   0  0  0  0  0  0  0  0  0  0  0  0
   -1.5000    2.5981    0.0000 O   0  0  0  0  0  0  0  0  0  0  0  0
   -1.5000    0.0000    0.0000 C   0  0  0  0  0  0  0  0  0  0  0  0
   -0.7500   -1.2990    0.0000 C   0  0  0  0  0  0  0  0  0  0  0  0
   -1.5000   -2.5981    0.0000 C   0  0  0  0  0  0  0  0  0  0  0  0
   -0.7500   -3.8971    0.0000 C   0  0  0  0  0  0  0  0  0  0  0  0
   -1.5000   -5.1962    0.0000 C   0  0  0  0  0  0  0  0  0  0  0  0
   -3.0000   -5.1962    0.0000 C   0  0  0  0  0  0  0  0  0  0  0  0
   -3.7500   -6.4952    0.0000 C   0  0  0  0  0  0  0  0  0  0  0  0
   -5.2500   -6.4952    0.0000 C   0  0  0  0  0  0  0  0  0  0  0  0
   -6.0000   -5.1962    0.0000 C   0  0  0  0  0  0  0  0  0  0  0  0
   -7.5000   -5.1962    0.0000 C   0  0  0  0  0  0  0  0  0  0  0  0
   -8.2500   -6.4952    0.0000 C   0  0  0  0  0  0  0  0  0  0  0  0
   -9.7500   -6.4952    0.0000 O   0  0  0  0  0  0  0  0  0  0  0  0
  -10.5000   -5.1962    0.0000 C   0  0  0  0  0  0  0  0  0  0  0  0
  -12.0000   -5.1962    0.0000 C   0  0  0  0  0  0  0  0  0  0  0  0
  -12.7500   -3.8971    0.0000 C   0  0  0  0  0  0  0  0  0  0  0  0
  -14.2500   -3.8971    0.0000 C   0  0  0  0  0  0  0  0  0  0  0  0
  -15.0000   -2.5981    0.0000 C   0  0  0  0  0  0  0  0  0  0  0  0
  -14.2500   -1.2990    0.0000 O   0  0  0  0  0  0  0  0  0  0  0  0
  -16.5000   -2.5981    0.0000 O   0  0  0  0  0  0  0  0  0  0  0  0
   -7.5000   -7.7942    0.0000 C   0  0  0  0  0  0  0  0  0  0  0  0
   -6.0000   -7.7942    0.0000 C   0  0  0  0  0  0  0  0  0  0  0  0
  2  1  1  6
  2  3  1  0
  2  4  1  0
  4  5  1  0
  6  5  1  1
  6  7  1  0
  7  8  1  0
  8  9  1  1
  9 10  1  0
 10 11  1  0
 11 12  1  1
  8 13  1  0
 13 14  1  1
 13 15  1  0
 15 16  1  0
 16 17  1  0
 17 18  2  0
 17 19  1  0
 19 20  2  0
 20 21  1  0
 21 22  1  0
 22 23  1  6
 23 24  1  0
 24 25  1  0
 25 26  1  0
 26 27  2  0
 27 28  1  0
 28 29  2  0
 29 30  1  0
 30 31  1  0
 31 32  1  0
 32 33  1  0
 33 34  1  0
 34 35  1  0
 35 36  2  0
 35 37  1  0
 29 38  1  0
 38 39  2  0
 11  2  1  0
 20 13  1  0
 39 26  1  0
 11  6  1  0
  7 22  1  6
M  END
>  <assay_chembl_id>  (142) 
CHEMBL899659

>  <assay_description>  (142) 
Displacement of [3H]mibolerone from human androgen receptor expressed in CHOK1 cells

>  <parent_molecule_chembl_id>  (142) 
CHEMBL237999

>  <canonical_smiles>  (142) 
C[C@]1(O)CC[C@H]2[C@H]3[C@H](CC[C@@]21C)[C@@]1(C)CCC(=O)C=C1C[C@H]3CCCc1ccc(OCCCCC(=O)O)cc1

>  <standard_type>  (142) 
IC50

>  <standard_relation>  (142) 
=

>  <standard_value>  (142) 
660.0

>  <standard_units>  (142) 
nM

>  <target_pref_name>  (142) 
Androgen Receptor

>  <target_chembl_id>  (142) 
CHEMBL1871

>  <target_organism>  (142) 
Homo sapiens

>  <pchembl_median>  (142) 
6.17

$$$$
CHEMBL428021
     RDKit          2D

 38 42  0  0  0  0  0  0  0  0999 V2000
    4.2135   -7.9218    0.0000 C   0  0  0  0  0  0  0  0  0  0  0  0
    3.4635   -6.6227    0.0000 C   0  0  0  0  0  0  0  0  0  0  0  0
    4.8980   -6.1842    0.0000 O   0  0  0  0  0  0  0  0  0  0  0  0
    2.2500   -7.5044    0.0000 C   0  0  0  0  0  0  0  0  0  0  0  0
    1.0365   -6.6227    0.0000 C   0  0  0  0  0  0  0  0  0  0  0  0
    1.5000   -5.1962    0.0000 C   0  0  0  0  0  0  0  0  0  0  0  0
    0.7500   -3.8971    0.0000 C   0  0  0  0  0  0  0  0  0  0  0  0
    1.5000   -2.5981    0.0000 C   0  0  0  0  0  0  0  0  0  0  0  0
    3.0000   -2.5981    0.0000 C   0  0  0  0  0  0  0  0  0  0  0  0
    3.7500   -3.8971    0.0000 C   0  0  0  0  0  0  0  0  0  0  0  0
    3.0000   -5.1962    0.0000 C   0  0  0  0  0  0  0  0  0  0  0  0
    4.4998   -5.1699    0.0000 C   0  0  0  0  0  0  0  0  0  0  0  0
    0.7500   -1.2990    0.0000 C   0  0  0  0  0  0  0  0  0  0  0  0
    2.2500   -1.2990    0.0000 C   0  0  0  0  0  0  0  0  0  0  0  0
    1.5000    0.0000    0.0000 C   0  0  0  0  0  0  0  0  0  0  0  0
    0.7500    1.2990    0.0000 C   0  0  0  0  0  0  0  0  0  0  0  0
   -0.7500    1.2990    0.0000 C   0  0  0  0  0  0  0  0  0  0  0  0
   -1.5000    2.5981    0.0000 O   0  0  0  0  0  0  0  0  0  0  0  0
   -1.5000    0.0000    0.0000 C   0  0  0  0  0  0  0  0  0  0  0  0
   -0.7500   -1.2990    0.0000 C   0  0  0  0  0  0  0  0  0  0  0  0
   -1.5000   -2.5981    0.0000 C   0  0  0  0  0  0  0  0  0  0  0  0
   -0.7500   -3.8971    0.0000 C   0  0  0  0  0  0  0  0  0  0  0  0
   -1.5000   -5.1962    0.0000 C   0  0  0  0  0  0  0  0  0  0  0  0
   -3.0000   -5.1962    0.0000 C   0  0  0  0  0  0  0  0  0  0  0  0
   -3.7500   -6.4952    0.0000 C   0  0  0  0  0  0  0  0  0  0  0  0
   -5.2500   -6.4952    0.0000 C   0  0  0  0  0  0  0  0  0  0  0  0
   -6.0000   -5.1962    0.0000 C   0  0  0  0  0  0  0  0  0  0  0  0
   -7.5000   -5.1962    0.0000 C   0  0  0  0  0  0  0  0  0  0  0  0
   -8.2500   -6.4952    0.0000 C   0  0  0  0  0  0  0  0  0  0  0  0
   -9.7500   -6.4952    0.0000 O   0  0  0  0  0  0  0  0  0  0  0  0
  -10.5000   -5.1962    0.0000 C   0  0  0  0  0  0  0  0  0  0  0  0
  -12.0000   -5.1962    0.0000 C   0  0  0  0  0  0  0  0  0  0  0  0
  -12.7500   -3.8971    0.0000 C   0  0  0  0  0  0  0  0  0  0  0  0
  -14.2500   -3.8971    0.0000 C   0  0  0  0  0  0  0  0  0  0  0  0
  -15.0000   -5.1962    0.0000 O   0  0  0  0  0  0  0  0  0  0  0  0
  -15.0000   -2.5981    0.0000 O   0  0  0  0  0  0  0  0  0  0  0  0
   -7.5000   -7.7942    0.0000 C   0  0  0  0  0  0  0  0  0  0  0  0
   -6.0000   -7.7942    0.0000 C   0  0  0  0  0  0  0  0  0  0  0  0
  2  1  1  6
  2  3  1  0
  2  4  1  0
  4  5  1  0
  6  5  1  1
  6  7  1  0
  7  8  1  0
  8  9  1  1
  9 10  1  0
 10 11  1  0
 11 12  1  1
  8 13  1  0
 13 14  1  1
 13 15  1  0
 15 16  1  0
 16 17  1  0
 17 18  2  0
 17 19  1  0
 19 20  2  0
 20 21  1  0
 21 22  1  0
 22 23  1  6
 23 24  1  0
 24 25  1  0
 25 26  1  0
 26 27  2  0
 27 28  1  0
 28 29  2  0
 29 30  1  0
 30 31  1  0
 31 32  1  0
 32 33  1  0
 33 34  1  0
 34 35  2  0
 34 36  1  0
 29 37  1  0
 37 38  2  0
 11  2  1  0
 20 13  1  0
 38 26  1  0
 11  6  1  0
  7 22  1  6
M  END
>  <assay_chembl_id>  (143) 
CHEMBL899659

>  <assay_description>  (143) 
Displacement of [3H]mibolerone from human androgen receptor expressed in CHOK1 cells

>  <parent_molecule_chembl_id>  (143) 
CHEMBL428021

>  <canonical_smiles>  (143) 
C[C@]1(O)CC[C@H]2[C@H]3[C@H](CC[C@@]21C)[C@@]1(C)CCC(=O)C=C1C[C@H]3CCCc1ccc(OCCCC(=O)O)cc1

>  <standard_type>  (143) 
IC50

>  <standard_relation>  (143) 
=

>  <standard_value>  (143) 
430.0

>  <standard_units>  (143) 
nM

>  <target_pref_name>  (143) 
Androgen Receptor

>  <target_chembl_id>  (143) 
CHEMBL1871

>  <target_organism>  (143) 
Homo sapiens

>  <pchembl_median>  (143) 
6.85

$$$$
CHEMBL235661
     RDKit          2D

 37 41  0  0  0  0  0  0  0  0999 V2000
    4.2135   -7.9218    0.0000 C   0  0  0  0  0  0  0  0  0  0  0  0
    3.4635   -6.6227    0.0000 C   0  0  0  0  0  0  0  0  0  0  0  0
    4.8980   -6.1842    0.0000 O   0  0  0  0  0  0  0  0  0  0  0  0
    2.2500   -7.5044    0.0000 C   0  0  0  0  0  0  0  0  0  0  0  0
    1.0365   -6.6227    0.0000 C   0  0  0  0  0  0  0  0  0  0  0  0
    1.5000   -5.1962    0.0000 C   0  0  0  0  0  0  0  0  0  0  0  0
    0.7500   -3.8971    0.0000 C   0  0  0  0  0  0  0  0  0  0  0  0
    1.5000   -2.5981    0.0000 C   0  0  0  0  0  0  0  0  0  0  0  0
    3.0000   -2.5981    0.0000 C   0  0  0  0  0  0  0  0  0  0  0  0
    3.7500   -3.8971    0.0000 C   0  0  0  0  0  0  0  0  0  0  0  0
    3.0000   -5.1962    0.0000 C   0  0  0  0  0  0  0  0  0  0  0  0
    4.4998   -5.1699    0.0000 C   0  0  0  0  0  0  0  0  0  0  0  0
    0.7500   -1.2990    0.0000 C   0  0  0  0  0  0  0  0  0  0  0  0
    2.2500   -1.2990    0.0000 C   0  0  0  0  0  0  0  0  0  0  0  0
    1.5000    0.0000    0.0000 C   0  0  0  0  0  0  0  0  0  0  0  0
    0.7500    1.2990    0.0000 C   0  0  0  0  0  0  0  0  0  0  0  0
   -0.7500    1.2990    0.0000 C   0  0  0  0  0  0  0  0  0  0  0  0
   -1.5000    2.5981    0.0000 O   0  0  0  0  0  0  0  0  0  0  0  0
   -1.5000    0.0000    0.0000 C   0  0  0  0  0  0  0  0  0  0  0  0
   -0.7500   -1.2990    0.0000 C   0  0  0  0  0  0  0  0  0  0  0  0
   -1.5000   -2.5981    0.0000 C   0  0  0  0  0  0  0  0  0  0  0  0
   -0.7500   -3.8971    0.0000 C   0  0  0  0  0  0  0  0  0  0  0  0
   -1.5000   -5.1962    0.0000 C   0  0  0  0  0  0  0  0  0  0  0  0
   -3.0000   -5.1962    0.0000 C   0  0  0  0  0  0  0  0  0  0  0  0
   -3.7500   -6.4952    0.0000 C   0  0  0  0  0  0  0  0  0  0  0  0
   -5.2500   -6.4952    0.0000 C   0  0  0  0  0  0  0  0  0  0  0  0
   -6.0000   -5.1962    0.0000 C   0  0  0  0  0  0  0  0  0  0  0  0
   -7.5000   -5.1962    0.0000 C   0  0  0  0  0  0  0  0  0  0  0  0
   -8.2500   -6.4952    0.0000 C   0  0  0  0  0  0  0  0  0  0  0  0
   -9.7500   -6.4952    0.0000 O   0  0  0  0  0  0  0  0  0  0  0  0
  -10.5000   -5.1962    0.0000 C   0  0  0  0  0  0  0  0  0  0  0  0
  -12.0000   -5.1962    0.0000 C   0  0  0  0  0  0  0  0  0  0  0  0
  -12.7500   -3.8971    0.0000 C   0  0  0  0  0  0  0  0  0  0  0  0
  -12.0000   -2.5981    0.0000 O   0  0  0  0  0  0  0  0  0  0  0  0
  -14.2500   -3.8971    0.0000 O   0  0  0  0  0  0  0  0  0  0  0  0
   -7.5000   -7.7942    0.0000 C   0  0  0  0  0  0  0  0  0  0  0  0
   -6.0000   -7.7942    0.0000 C   0  0  0  0  0  0  0  0  0  0  0  0
  2  1  1  6
  2  3  1  0
  2  4  1  0
  4  5  1  0
  6  5  1  1
  6  7  1  0
  7  8  1  0
  8  9  1  1
  9 10  1  0
 10 11  1  0
 11 12  1  1
  8 13  1  0
 13 14  1  1
 13 15  1  0
 15 16  1  0
 16 17  1  0
 17 18  2  0
 17 19  1  0
 19 20  2  0
 20 21  1  0
 21 22  1  0
 22 23  1  6
 23 24  1  0
 24 25  1  0
 25 26  1  0
 26 27  2  0
 27 28  1  0
 28 29  2  0
 29 30  1  0
 30 31  1  0
 31 32  1  0
 32 33  1  0
 33 34  2  0
 33 35  1  0
 29 36  1  0
 36 37  2  0
 11  2  1  0
 20 13  1  0
 37 26  1  0
 11  6  1  0
  7 22  1  6
M  END
>  <assay_chembl_id>  (144) 
CHEMBL899659

>  <assay_description>  (144) 
Displacement of [3H]mibolerone from human androgen receptor expressed in CHOK1 cells

>  <parent_molecule_chembl_id>  (144) 
CHEMBL235661

>  <canonical_smiles>  (144) 
C[C@]1(O)CC[C@H]2[C@H]3[C@H](CC[C@@]21C)[C@@]1(C)CCC(=O)C=C1C[C@H]3CCCc1ccc(OCCC(=O)O)cc1

>  <standard_type>  (144) 
IC50

>  <standard_relation>  (144) 
=

>  <standard_value>  (144) 
300.0

>  <standard_units>  (144) 
nM

>  <target_pref_name>  (144) 
Androgen Receptor

>  <target_chembl_id>  (144) 
CHEMBL1871

>  <target_organism>  (144) 
Homo sapiens

>  <pchembl_median>  (144) 
6.7

$$$$
CHEMBL391648
     RDKit          2D

 34 37  0  0  0  0  0  0  0  0999 V2000
    4.2135   -7.9218    0.0000 C   0  0  0  0  0  0  0  0  0  0  0  0
    3.4635   -6.6227    0.0000 C   0  0  0  0  0  0  0  0  0  0  0  0
    4.8980   -6.1842    0.0000 O   0  0  0  0  0  0  0  0  0  0  0  0
    2.2500   -7.5044    0.0000 C   0  0  0  0  0  0  0  0  0  0  0  0
    1.0365   -6.6227    0.0000 C   0  0  0  0  0  0  0  0  0  0  0  0
    1.5000   -5.1962    0.0000 C   0  0  0  0  0  0  0  0  0  0  0  0
    0.7500   -3.8971    0.0000 C   0  0  0  0  0  0  0  0  0  0  0  0
    1.5000   -2.5981    0.0000 C   0  0  0  0  0  0  0  0  0  0  0  0
    3.0000   -2.5981    0.0000 C   0  0  0  0  0  0  0  0  0  0  0  0
    3.7500   -3.8971    0.0000 C   0  0  0  0  0  0  0  0  0  0  0  0
    3.0000   -5.1962    0.0000 C   0  0  0  0  0  0  0  0  0  0  0  0
    4.4998   -5.1699    0.0000 C   0  0  0  0  0  0  0  0  0  0  0  0
    0.7500   -1.2990    0.0000 C   0  0  0  0  0  0  0  0  0  0  0  0
    2.2500   -1.2990    0.0000 C   0  0  0  0  0  0  0  0  0  0  0  0
    1.5000    0.0000    0.0000 C   0  0  0  0  0  0  0  0  0  0  0  0
    0.7500    1.2990    0.0000 C   0  0  0  0  0  0  0  0  0  0  0  0
   -0.7500    1.2990    0.0000 C   0  0  0  0  0  0  0  0  0  0  0  0
   -1.5000    2.5981    0.0000 O   0  0  0  0  0  0  0  0  0  0  0  0
   -1.5000    0.0000    0.0000 C   0  0  0  0  0  0  0  0  0  0  0  0
   -0.7500   -1.2990    0.0000 C   0  0  0  0  0  0  0  0  0  0  0  0
   -1.5000   -2.5981    0.0000 C   0  0  0  0  0  0  0  0  0  0  0  0
   -0.7500   -3.8971    0.0000 C   0  0  0  0  0  0  0  0  0  0  0  0
   -1.5000   -5.1962    0.0000 C   0  0  0  0  0  0  0  0  0  0  0  0
   -3.0000   -5.1962    0.0000 C   0  0  0  0  0  0  0  0  0  0  0  0
   -3.7500   -6.4952    0.0000 C   0  0  0  0  0  0  0  0  0  0  0  0
   -5.2500   -6.4952    0.0000 C   0  0  0  0  0  0  0  0  0  0  0  0
   -6.0000   -7.7942    0.0000 C   0  0  0  0  0  0  0  0  0  0  0  0
   -7.5000   -7.7942    0.0000 C   0  0  0  0  0  0  0  0  0  0  0  0
   -8.2500   -9.0933    0.0000 C   0  0  0  0  0  0  0  0  0  0  0  0
   -9.7500   -9.0933    0.0000 C   0  0  0  0  0  0  0  0  0  0  0  0
  -10.5000  -10.3923    0.0000 C   0  0  0  0  0  0  0  0  0  0  0  0
  -12.0000  -10.3923    0.0000 C   0  0  0  0  0  0  0  0  0  0  0  0
  -12.7500   -9.0933    0.0000 O   0  0  0  0  0  0  0  0  0  0  0  0
  -12.7500  -11.6913    0.0000 O   0  0  0  0  0  0  0  0  0  0  0  0
  2  1  1  6
  2  3  1  0
  2  4  1  0
  4  5  1  0
  6  5  1  1
  6  7  1  0
  7  8  1  0
  8  9  1  1
  9 10  1  0
 10 11  1  0
 11 12  1  1
  8 13  1  0
 13 14  1  1
 13 15  1  0
 15 16  1  0
 16 17  1  0
 17 18  2  0
 17 19  1  0
 19 20  2  0
 20 21  1  0
 21 22  1  0
 22 23  1  6
 23 24  1  0
 24 25  1  0
 25 26  1  0
 26 27  1  0
 27 28  1  0
 28 29  1  0
 29 30  1  0
 30 31  1  0
 31 32  1  0
 32 33  2  0
 32 34  1  0
 11  2  1  0
 20 13  1  0
 11  6  1  0
  7 22  1  6
M  END
>  <assay_chembl_id>  (145) 
CHEMBL899659

>  <assay_description>  (145) 
Displacement of [3H]mibolerone from human androgen receptor expressed in CHOK1 cells

>  <parent_molecule_chembl_id>  (145) 
CHEMBL391648

>  <canonical_smiles>  (145) 
C[C@]1(O)CC[C@H]2[C@H]3[C@H](CC[C@@]21C)[C@@]1(C)CCC(=O)C=C1C[C@H]3CCCCCCCCCC(=O)O

>  <standard_type>  (145) 
IC50

>  <standard_relation>  (145) 
=

>  <standard_value>  (145) 
600.0

>  <standard_units>  (145) 
nM

>  <target_pref_name>  (145) 
Androgen Receptor

>  <target_chembl_id>  (145) 
CHEMBL1871

>  <target_organism>  (145) 
Homo sapiens

>  <pchembl_median>  (145) 
6.66

$$$$
CHEMBL491
     RDKit          2D

 20 20  0  0  0  0  0  0  0  0999 V2000
    5.2500    0.2010    0.0000 C   0  0  0  0  0  0  0  0  0  0  0  0
    5.2500   -1.2990    0.0000 C   0  0  0  0  0  0  0  0  0  0  0  0
    5.2500   -2.7990    0.0000 C   0  0  0  0  0  0  0  0  0  0  0  0
    6.7500   -1.2990    0.0000 O   0  0  0  0  0  0  0  0  0  0  0  0
    3.7500   -1.2990    0.0000 C   0  0  0  0  0  0  0  0  0  0  0  0
    3.0000   -2.5981    0.0000 O   0  0  0  0  0  0  0  0  0  0  0  0
    3.0000    0.0000    0.0000 N   0  0  0  0  0  0  0  0  0  0  0  0
    1.5000    0.0000    0.0000 C   0  0  0  0  0  0  0  0  0  0  0  0
    0.7500   -1.2990    0.0000 C   0  0  0  0  0  0  0  0  0  0  0  0
   -0.7500   -1.2990    0.0000 C   0  0  0  0  0  0  0  0  0  0  0  0
   -1.5000    0.0000    0.0000 C   0  0  0  0  0  0  0  0  0  0  0  0
   -3.0000    0.0000    0.0000 N   0  0  0  0  0  4  0  0  0  0  0  0
   -3.7500    1.2990    0.0000 O   0  0  0  0  0  0  0  0  0  0  0  0
   -3.7500   -1.2990    0.0000 O   0  0  0  0  0  1  0  0  0  0  0  0
   -0.7500    1.2990    0.0000 C   0  0  0  0  0  0  0  0  0  0  0  0
   -1.5000    2.5981    0.0000 C   0  0  0  0  0  0  0  0  0  0  0  0
   -2.2500    3.8971    0.0000 F   0  0  0  0  0  0  0  0  0  0  0  0
   -0.2010    3.3481    0.0000 F   0  0  0  0  0  0  0  0  0  0  0  0
   -2.7990    1.8481    0.0000 F   0  0  0  0  0  0  0  0  0  0  0  0
    0.7500    1.2990    0.0000 C   0  0  0  0  0  0  0  0  0  0  0  0
  1  2  1  0
  2  3  1  0
  2  4  1  0
  2  5  1  0
  5  6  2  0
  5  7  1  0
  7  8  1  0
  8  9  2  0
  9 10  1  0
 10 11  2  0
 11 12  1  0
 12 13  2  0
 12 14  1  0
 11 15  1  0
 15 16  1  0
 16 17  1  0
 16 18  1  0
 16 19  1  0
 15 20  2  0
 20  8  1  0
M  CHG  2  12   1  14  -1
M  END
>  <assay_chembl_id>  (146) 
CHEMBL899659

>  <assay_description>  (146) 
Displacement of [3H]mibolerone from human androgen receptor expressed in CHOK1 cells

>  <parent_molecule_chembl_id>  (146) 
CHEMBL491

>  <canonical_smiles>  (146) 
CC(C)(O)C(=O)Nc1ccc([N+](=O)[O-])c(C(F)(F)F)c1

>  <standard_type>  (146) 
IC50

>  <standard_relation>  (146) 
=

>  <standard_value>  (146) 
200.0

>  <standard_units>  (146) 
nM

>  <target_pref_name>  (146) 
Androgen Receptor

>  <target_chembl_id>  (146) 
CHEMBL1871

>  <target_organism>  (146) 
Homo sapiens

>  <pchembl_median>  (146) 
6.72

$$$$
CHEMBL393320
     RDKit          2D

 33 36  0  0  0  0  0  0  0  0999 V2000
   12.0000  -10.3923    0.0000 C   0  0  0  0  0  0  0  0  0  0  0  0
   10.5000  -10.3923    0.0000 N   0  0  0  0  0  0  0  0  0  0  0  0
    9.7500  -11.6913    0.0000 C   0  0  0  0  0  0  0  0  0  0  0  0
    9.7500   -9.0933    0.0000 C   0  0  0  0  0  0  0  0  0  0  0  0
   10.5000   -7.7942    0.0000 O   0  0  0  0  0  0  0  0  0  0  0  0
    8.2500   -9.0933    0.0000 C   0  0  0  0  0  0  0  0  0  0  0  0
    7.5000   -7.7942    0.0000 C   0  0  0  0  0  0  0  0  0  0  0  0
    6.0000   -7.7942    0.0000 C   0  0  0  0  0  0  0  0  0  0  0  0
    5.2500   -6.4952    0.0000 C   0  0  0  0  0  0  0  0  0  0  0  0
    3.7500   -6.4952    0.0000 C   0  0  0  0  0  0  0  0  0  0  0  0
    3.0000   -5.1962    0.0000 C   0  0  0  0  0  0  0  0  0  0  0  0
    1.5000   -5.1962    0.0000 C   0  0  0  0  0  0  0  0  0  0  0  0
    0.7500   -3.8971    0.0000 C   0  0  0  0  0  0  0  0  0  0  0  0
    1.5000   -2.5981    0.0000 C   0  0  0  0  0  0  0  0  0  0  0  0
    0.7500   -1.2990    0.0000 C   0  0  0  0  0  0  0  0  0  0  0  0
    1.5000    0.0000    0.0000 C   0  0  0  0  0  0  0  0  0  0  0  0
    0.7500    1.2990    0.0000 C   0  0  0  0  0  0  0  0  0  0  0  0
    1.5000    2.5981    0.0000 O   0  0  0  0  0  0  0  0  0  0  0  0
   -0.7500    1.2990    0.0000 C   0  0  0  0  0  0  0  0  0  0  0  0
   -1.5000    0.0000    0.0000 C   0  0  0  0  0  0  0  0  0  0  0  0
   -0.7500   -1.2990    0.0000 C   0  0  0  0  0  0  0  0  0  0  0  0
   -2.2500   -1.2990    0.0000 C   0  0  0  0  0  0  0  0  0  0  0  0
   -1.5000   -2.5981    0.0000 C   0  0  0  0  0  0  0  0  0  0  0  0
   -3.0000   -2.5981    0.0000 C   0  0  0  0  0  0  0  0  0  0  0  0
   -3.7500   -3.8971    0.0000 C   0  0  0  0  0  0  0  0  0  0  0  0
   -3.0000   -5.1962    0.0000 C   0  0  0  0  0  0  0  0  0  0  0  0
   -4.4918   -5.3529    0.0000 C   0  0  0  0  0  0  0  0  0  0  0  0
   -3.4635   -6.6227    0.0000 C   0  0  0  0  0  0  0  0  0  0  0  0
   -4.8901   -7.0863    0.0000 O   0  0  0  0  0  0  0  0  0  0  0  0
   -2.2500   -7.5044    0.0000 C   0  0  0  0  0  0  0  0  0  0  0  0
   -1.0365   -6.6227    0.0000 C   0  0  0  0  0  0  0  0  0  0  0  0
   -1.5000   -5.1962    0.0000 C   0  0  0  0  0  0  0  0  0  0  0  0
   -0.7500   -3.8971    0.0000 C   0  0  0  0  0  0  0  0  0  0  0  0
  1  2  1  0
  2  3  1  0
  2  4  1  0
  4  5  2  0
  4  6  1  0
  6  7  1  0
  7  8  1  0
  8  9  1  0
  9 10  1  0
 10 11  1  0
 11 12  1  0
 13 12  1  1
 13 14  1  0
 15 14  1  6
 15 16  1  0
 16 17  1  0
 17 18  2  0
 17 19  1  0
 19 20  1  0
 20 21  1  0
 21 22  1  6
 21 23  1  0
 23 24  1  6
 24 25  1  0
 25 26  1  0
 26 27  1  6
 26 28  1  0
 28 29  1  6
 28 30  1  0
 30 31  1  0
 32 31  1  6
 32 33  1  0
 33 13  1  1
 21 15  1  0
 33 23  1  0
 32 26  1  0
M  END
>  <assay_chembl_id>  (147) 
CHEMBL899659

>  <assay_description>  (147) 
Displacement of [3H]mibolerone from human androgen receptor expressed in CHOK1 cells

>  <parent_molecule_chembl_id>  (147) 
CHEMBL393320

>  <canonical_smiles>  (147) 
CN(C)C(=O)CCCCCCC[C@@H]1C[C@H]2CC(=O)CC[C@]2(C)[C@H]2CC[C@]3(C)[C@@H](O)CC[C@H]3[C@@H]21

>  <standard_type>  (147) 
IC50

>  <standard_relation>  (147) 
=

>  <standard_value>  (147) 
260.0

>  <standard_units>  (147) 
nM

>  <target_pref_name>  (147) 
Androgen Receptor

>  <target_chembl_id>  (147) 
CHEMBL1871

>  <target_organism>  (147) 
Homo sapiens

>  <pchembl_median>  (147) 
6.77

$$$$
CHEMBL235003
     RDKit          2D

 31 34  0  0  0  0  0  0  0  0999 V2000
   -4.4918   -5.3529    0.0000 C   0  0  0  0  0  0  0  0  0  0  0  0
   -3.0000   -5.1962    0.0000 C   0  0  0  0  0  0  0  0  0  0  0  0
   -3.7500   -3.8971    0.0000 C   0  0  0  0  0  0  0  0  0  0  0  0
   -3.0000   -2.5981    0.0000 C   0  0  0  0  0  0  0  0  0  0  0  0
   -1.5000   -2.5981    0.0000 C   0  0  0  0  0  0  0  0  0  0  0  0
   -0.7500   -3.8971    0.0000 C   0  0  0  0  0  0  0  0  0  0  0  0
   -1.5000   -5.1962    0.0000 C   0  0  0  0  0  0  0  0  0  0  0  0
   -1.0365   -6.6227    0.0000 C   0  0  0  0  0  0  0  0  0  0  0  0
   -2.2500   -7.5044    0.0000 C   0  0  0  0  0  0  0  0  0  0  0  0
   -3.4635   -6.6227    0.0000 C   0  0  0  0  0  0  0  0  0  0  0  0
   -4.8901   -7.0863    0.0000 O   0  0  0  0  0  0  0  0  0  0  0  0
    0.7500   -3.8971    0.0000 C   0  0  0  0  0  0  0  0  0  0  0  0
    1.5000   -5.1962    0.0000 C   0  0  0  0  0  0  0  0  0  0  0  0
    3.0000   -5.1962    0.0000 C   0  0  0  0  0  0  0  0  0  0  0  0
    3.7500   -6.4952    0.0000 C   0  0  0  0  0  0  0  0  0  0  0  0
    5.2500   -6.4952    0.0000 C   0  0  0  0  0  0  0  0  0  0  0  0
    6.0000   -7.7942    0.0000 C   0  0  0  0  0  0  0  0  0  0  0  0
    7.5000   -7.7942    0.0000 C   0  0  0  0  0  0  0  0  0  0  0  0
    8.2500   -9.0933    0.0000 C   0  0  0  0  0  0  0  0  0  0  0  0
    9.7500   -9.0933    0.0000 C   0  0  0  0  0  0  0  0  0  0  0  0
   10.5000   -7.7942    0.0000 O   0  0  0  0  0  0  0  0  0  0  0  0
   10.5000  -10.3923    0.0000 O   0  0  0  0  0  0  0  0  0  0  0  0
    1.5000   -2.5981    0.0000 C   0  0  0  0  0  0  0  0  0  0  0  0
    0.7500   -1.2990    0.0000 C   0  0  0  0  0  0  0  0  0  0  0  0
    1.5000    0.0000    0.0000 C   0  0  0  0  0  0  0  0  0  0  0  0
    0.7500    1.2990    0.0000 C   0  0  0  0  0  0  0  0  0  0  0  0
    1.5000    2.5981    0.0000 O   0  0  0  0  0  0  0  0  0  0  0  0
   -0.7500    1.2990    0.0000 C   0  0  0  0  0  0  0  0  0  0  0  0
   -1.5000    0.0000    0.0000 C   0  0  0  0  0  0  0  0  0  0  0  0
   -0.7500   -1.2990    0.0000 C   0  0  0  0  0  0  0  0  0  0  0  0
   -2.2500   -1.2990    0.0000 C   0  0  0  0  0  0  0  0  0  0  0  0
  2  1  1  6
  2  3  1  0
  3  4  1  0
  5  4  1  6
  5  6  1  0
  6  7  1  0
  7  8  1  6
  8  9  1  0
  9 10  1  0
 10 11  1  6
  6 12  1  1
 12 13  1  1
 13 14  1  0
 14 15  1  0
 15 16  1  0
 16 17  1  0
 17 18  1  0
 18 19  1  0
 19 20  1  0
 20 21  2  0
 20 22  1  0
 12 23  1  0
 24 23  1  6
 24 25  1  0
 25 26  1  0
 26 27  2  0
 26 28  1  0
 28 29  1  0
 29 30  1  0
 30 31  1  6
  7  2  1  0
 30 24  1  0
 10  2  1  0
 30  5  1  0
M  END
>  <assay_chembl_id>  (148) 
CHEMBL899659

>  <assay_description>  (148) 
Displacement of [3H]mibolerone from human androgen receptor expressed in CHOK1 cells

>  <parent_molecule_chembl_id>  (148) 
CHEMBL235003

>  <canonical_smiles>  (148) 
C[C@]12CC[C@H]3[C@H]([C@@H]1CC[C@@H]2O)[C@H](CCCCCCCC(=O)O)C[C@H]1CC(=O)CC[C@@]13C

>  <standard_type>  (148) 
IC50

>  <standard_relation>  (148) 
=

>  <standard_value>  (148) 
660.0

>  <standard_units>  (148) 
nM

>  <target_pref_name>  (148) 
Androgen Receptor

>  <target_chembl_id>  (148) 
CHEMBL1871

>  <target_organism>  (148) 
Homo sapiens

>  <pchembl_median>  (148) 
6.43

$$$$
CHEMBL393319
     RDKit          2D

 33 36  0  0  0  0  0  0  0  0999 V2000
   -4.4918   -5.3529    0.0000 C   0  0  0  0  0  0  0  0  0  0  0  0
   -3.0000   -5.1962    0.0000 C   0  0  0  0  0  0  0  0  0  0  0  0
   -3.7500   -3.8971    0.0000 C   0  0  0  0  0  0  0  0  0  0  0  0
   -3.0000   -2.5981    0.0000 C   0  0  0  0  0  0  0  0  0  0  0  0
   -1.5000   -2.5981    0.0000 C   0  0  0  0  0  0  0  0  0  0  0  0
   -0.7500   -3.8971    0.0000 C   0  0  0  0  0  0  0  0  0  0  0  0
   -1.5000   -5.1962    0.0000 C   0  0  0  0  0  0  0  0  0  0  0  0
   -1.0365   -6.6227    0.0000 C   0  0  0  0  0  0  0  0  0  0  0  0
   -2.2500   -7.5044    0.0000 C   0  0  0  0  0  0  0  0  0  0  0  0
   -3.4635   -6.6227    0.0000 C   0  0  0  0  0  0  0  0  0  0  0  0
   -4.8901   -7.0863    0.0000 O   0  0  0  0  0  0  0  0  0  0  0  0
    0.7500   -3.8971    0.0000 C   0  0  0  0  0  0  0  0  0  0  0  0
    1.5000   -5.1962    0.0000 C   0  0  0  0  0  0  0  0  0  0  0  0
    3.0000   -5.1962    0.0000 C   0  0  0  0  0  0  0  0  0  0  0  0
    3.7500   -6.4952    0.0000 C   0  0  0  0  0  0  0  0  0  0  0  0
    5.2500   -6.4952    0.0000 C   0  0  0  0  0  0  0  0  0  0  0  0
    6.0000   -7.7942    0.0000 C   0  0  0  0  0  0  0  0  0  0  0  0
    7.5000   -7.7942    0.0000 C   0  0  0  0  0  0  0  0  0  0  0  0
    8.2500   -9.0933    0.0000 C   0  0  0  0  0  0  0  0  0  0  0  0
    9.7500   -9.0933    0.0000 C   0  0  0  0  0  0  0  0  0  0  0  0
   10.5000  -10.3923    0.0000 C   0  0  0  0  0  0  0  0  0  0  0  0
   12.0000  -10.3923    0.0000 C   0  0  0  0  0  0  0  0  0  0  0  0
   12.7500   -9.0933    0.0000 O   0  0  0  0  0  0  0  0  0  0  0  0
   12.7500  -11.6913    0.0000 O   0  0  0  0  0  0  0  0  0  0  0  0
    1.5000   -2.5981    0.0000 C   0  0  0  0  0  0  0  0  0  0  0  0
    0.7500   -1.2990    0.0000 C   0  0  0  0  0  0  0  0  0  0  0  0
    1.5000    0.0000    0.0000 C   0  0  0  0  0  0  0  0  0  0  0  0
    0.7500    1.2990    0.0000 C   0  0  0  0  0  0  0  0  0  0  0  0
    1.5000    2.5981    0.0000 O   0  0  0  0  0  0  0  0  0  0  0  0
   -0.7500    1.2990    0.0000 C   0  0  0  0  0  0  0  0  0  0  0  0
   -1.5000    0.0000    0.0000 C   0  0  0  0  0  0  0  0  0  0  0  0
   -0.7500   -1.2990    0.0000 C   0  0  0  0  0  0  0  0  0  0  0  0
   -2.2500   -1.2990    0.0000 C   0  0  0  0  0  0  0  0  0  0  0  0
  2  1  1  6
  2  3  1  0
  3  4  1  0
  5  4  1  6
  5  6  1  0
  6  7  1  0
  7  8  1  6
  8  9  1  0
  9 10  1  0
 10 11  1  6
  6 12  1  1
 12 13  1  1
 13 14  1  0
 14 15  1  0
 15 16  1  0
 16 17  1  0
 17 18  1  0
 18 19  1  0
 19 20  1  0
 20 21  1  0
 21 22  1  0
 22 23  2  0
 22 24  1  0
 12 25  1  0
 26 25  1  6
 26 27  1  0
 27 28  1  0
 28 29  2  0
 28 30  1  0
 30 31  1  0
 31 32  1  0
 32 33  1  6
  7  2  1  0
 32 26  1  0
 10  2  1  0
 32  5  1  0
M  END
>  <assay_chembl_id>  (149) 
CHEMBL899659

>  <assay_description>  (149) 
Displacement of [3H]mibolerone from human androgen receptor expressed in CHOK1 cells

>  <parent_molecule_chembl_id>  (149) 
CHEMBL393319

>  <canonical_smiles>  (149) 
C[C@]12CC[C@H]3[C@H]([C@@H]1CC[C@@H]2O)[C@H](CCCCCCCCCC(=O)O)C[C@H]1CC(=O)CC[C@@]13C

>  <standard_type>  (149) 
IC50

>  <standard_relation>  (149) 
=

>  <standard_value>  (149) 
350.0

>  <standard_units>  (149) 
nM

>  <target_pref_name>  (149) 
Androgen Receptor

>  <target_chembl_id>  (149) 
CHEMBL1871

>  <target_organism>  (149) 
Homo sapiens

>  <pchembl_median>  (149) 
6.53

$$$$
CHEMBL235445
     RDKit          2D

 41 45  0  0  0  0  0  0  0  0999 V2000
    4.2135   -7.9218    0.0000 C   0  0  0  0  0  0  0  0  0  0  0  0
    3.4635   -6.6227    0.0000 C   0  0  0  0  0  0  0  0  0  0  0  0
    4.8980   -6.1842    0.0000 O   0  0  0  0  0  0  0  0  0  0  0  0
    2.2500   -7.5044    0.0000 C   0  0  0  0  0  0  0  0  0  0  0  0
    1.0365   -6.6227    0.0000 C   0  0  0  0  0  0  0  0  0  0  0  0
    1.5000   -5.1962    0.0000 C   0  0  0  0  0  0  0  0  0  0  0  0
    0.7500   -3.8971    0.0000 C   0  0  0  0  0  0  0  0  0  0  0  0
    1.5000   -2.5981    0.0000 C   0  0  0  0  0  0  0  0  0  0  0  0
    3.0000   -2.5981    0.0000 C   0  0  0  0  0  0  0  0  0  0  0  0
    3.7500   -3.8971    0.0000 C   0  0  0  0  0  0  0  0  0  0  0  0
    3.0000   -5.1962    0.0000 C   0  0  0  0  0  0  0  0  0  0  0  0
    4.4998   -5.1699    0.0000 C   0  0  0  0  0  0  0  0  0  0  0  0
    0.7500   -1.2990    0.0000 C   0  0  0  0  0  0  0  0  0  0  0  0
    2.2500   -1.2990    0.0000 C   0  0  0  0  0  0  0  0  0  0  0  0
    1.5000    0.0000    0.0000 C   0  0  0  0  0  0  0  0  0  0  0  0
    0.7500    1.2990    0.0000 C   0  0  0  0  0  0  0  0  0  0  0  0
   -0.7500    1.2990    0.0000 C   0  0  0  0  0  0  0  0  0  0  0  0
   -1.5000    2.5981    0.0000 O   0  0  0  0  0  0  0  0  0  0  0  0
   -1.5000    0.0000    0.0000 C   0  0  0  0  0  0  0  0  0  0  0  0
   -0.7500   -1.2990    0.0000 C   0  0  0  0  0  0  0  0  0  0  0  0
   -1.5000   -2.5981    0.0000 C   0  0  0  0  0  0  0  0  0  0  0  0
   -0.7500   -3.8971    0.0000 C   0  0  0  0  0  0  0  0  0  0  0  0
   -1.5000   -5.1962    0.0000 C   0  0  0  0  0  0  0  0  0  0  0  0
   -3.0000   -5.1962    0.0000 C   0  0  0  0  0  0  0  0  0  0  0  0
   -3.7500   -6.4952    0.0000 C   0  0  0  0  0  0  0  0  0  0  0  0
   -5.2500   -6.4952    0.0000 C   0  0  0  0  0  0  0  0  0  0  0  0
   -6.0000   -7.7942    0.0000 C   0  0  0  0  0  0  0  0  0  0  0  0
   -7.5000   -7.7942    0.0000 C   0  0  0  0  0  0  0  0  0  0  0  0
   -8.2500   -9.0933    0.0000 C   0  0  0  0  0  0  0  0  0  0  0  0
   -7.5000  -10.3923    0.0000 C   0  0  0  0  0  0  0  0  0  0  0  0
   -8.2500  -11.6913    0.0000 O   0  0  0  0  0  0  0  0  0  0  0  0
   -9.7500  -11.6913    0.0000 C   0  0  0  0  0  0  0  0  0  0  0  0
  -10.5000  -12.9904    0.0000 C   0  0  0  0  0  0  0  0  0  0  0  0
  -12.0000  -12.9904    0.0000 C   0  0  0  0  0  0  0  0  0  0  0  0
  -12.7500  -14.2894    0.0000 C   0  0  0  0  0  0  0  0  0  0  0  0
  -14.2500  -14.2894    0.0000 C   0  0  0  0  0  0  0  0  0  0  0  0
  -15.0000  -15.5885    0.0000 C   0  0  0  0  0  0  0  0  0  0  0  0
  -14.2500  -16.8875    0.0000 O   0  0  0  0  0  0  0  0  0  0  0  0
  -16.5000  -15.5885    0.0000 O   0  0  0  0  0  0  0  0  0  0  0  0
   -6.0000  -10.3923    0.0000 C   0  0  0  0  0  0  0  0  0  0  0  0
   -5.2500   -9.0933    0.0000 C   0  0  0  0  0  0  0  0  0  0  0  0
  2  1  1  6
  2  3  1  0
  2  4  1  0
  4  5  1  0
  6  5  1  1
  6  7  1  0
  7  8  1  0
  8  9  1  1
  9 10  1  0
 10 11  1  0
 11 12  1  1
  8 13  1  0
 13 14  1  1
 13 15  1  0
 15 16  1  0
 16 17  1  0
 17 18  2  0
 17 19  1  0
 19 20  2  0
 20 21  1  0
 21 22  1  0
 22 23  1  6
 23 24  1  0
 24 25  1  0
 25 26  1  0
 26 27  1  0
 27 28  2  0
 28 29  1  0
 29 30  2  0
 30 31  1  0
 31 32  1  0
 32 33  1  0
 33 34  1  0
 34 35  1  0
 35 36  1  0
 36 37  1  0
 37 38  2  0
 37 39  1  0
 30 40  1  0
 40 41  2  0
 11  2  1  0
 20 13  1  0
 41 27  1  0
 11  6  1  0
  7 22  1  6
M  END
>  <assay_chembl_id>  (150) 
CHEMBL899661

>  <assay_description>  (150) 
Antagonist activity at human androgen receptor expressed in HeLa cells assessed as inhibition of dihydrotestosterone induced transcriptional activity by reporter gene assay

>  <parent_molecule_chembl_id>  (150) 
CHEMBL235445

>  <canonical_smiles>  (150) 
C[C@]1(O)CC[C@H]2[C@H]3[C@H](CC[C@@]21C)[C@@]1(C)CCC(=O)C=C1C[C@H]3CCCCc1ccc(OCCCCCC(=O)O)cc1

>  <standard_type>  (150) 
IC50

>  <standard_relation>  (150) 
=

>  <standard_value>  (150) 
420.0

>  <standard_units>  (150) 
nM

>  <target_pref_name>  (150) 
Androgen Receptor

>  <target_chembl_id>  (150) 
CHEMBL1871

>  <target_organism>  (150) 
Homo sapiens

>  <pchembl_median>  (150) 
7.22

$$$$
CHEMBL238000
     RDKit          2D

 39 43  0  0  0  0  0  0  0  0999 V2000
    4.2135   -7.9218    0.0000 C   0  0  0  0  0  0  0  0  0  0  0  0
    3.4635   -6.6227    0.0000 C   0  0  0  0  0  0  0  0  0  0  0  0
    4.8980   -6.1842    0.0000 O   0  0  0  0  0  0  0  0  0  0  0  0
    2.2500   -7.5044    0.0000 C   0  0  0  0  0  0  0  0  0  0  0  0
    1.0365   -6.6227    0.0000 C   0  0  0  0  0  0  0  0  0  0  0  0
    1.5000   -5.1962    0.0000 C   0  0  0  0  0  0  0  0  0  0  0  0
    0.7500   -3.8971    0.0000 C   0  0  0  0  0  0  0  0  0  0  0  0
    1.5000   -2.5981    0.0000 C   0  0  0  0  0  0  0  0  0  0  0  0
    3.0000   -2.5981    0.0000 C   0  0  0  0  0  0  0  0  0  0  0  0
    3.7500   -3.8971    0.0000 C   0  0  0  0  0  0  0  0  0  0  0  0
    3.0000   -5.1962    0.0000 C   0  0  0  0  0  0  0  0  0  0  0  0
    4.4998   -5.1699    0.0000 C   0  0  0  0  0  0  0  0  0  0  0  0
    0.7500   -1.2990    0.0000 C   0  0  0  0  0  0  0  0  0  0  0  0
    2.2500   -1.2990    0.0000 C   0  0  0  0  0  0  0  0  0  0  0  0
    1.5000    0.0000    0.0000 C   0  0  0  0  0  0  0  0  0  0  0  0
    0.7500    1.2990    0.0000 C   0  0  0  0  0  0  0  0  0  0  0  0
   -0.7500    1.2990    0.0000 C   0  0  0  0  0  0  0  0  0  0  0  0
   -1.5000    2.5981    0.0000 O   0  0  0  0  0  0  0  0  0  0  0  0
   -1.5000    0.0000    0.0000 C   0  0  0  0  0  0  0  0  0  0  0  0
   -0.7500   -1.2990    0.0000 C   0  0  0  0  0  0  0  0  0  0  0  0
   -1.5000   -2.5981    0.0000 C   0  0  0  0  0  0  0  0  0  0  0  0
   -0.7500   -3.8971    0.0000 C   0  0  0  0  0  0  0  0  0  0  0  0
   -1.5000   -5.1962    0.0000 C   0  0  0  0  0  0  0  0  0  0  0  0
   -3.0000   -5.1962    0.0000 C   0  0  0  0  0  0  0  0  0  0  0  0
   -3.7500   -6.4952    0.0000 C   0  0  0  0  0  0  0  0  0  0  0  0
   -5.2500   -6.4952    0.0000 C   0  0  0  0  0  0  0  0  0  0  0  0
   -6.0000   -7.7942    0.0000 C   0  0  0  0  0  0  0  0  0  0  0  0
   -7.5000   -7.7942    0.0000 C   0  0  0  0  0  0  0  0  0  0  0  0
   -8.2500   -9.0933    0.0000 C   0  0  0  0  0  0  0  0  0  0  0  0
   -7.5000  -10.3923    0.0000 C   0  0  0  0  0  0  0  0  0  0  0  0
   -8.2500  -11.6913    0.0000 O   0  0  0  0  0  0  0  0  0  0  0  0
   -9.7500  -11.6913    0.0000 C   0  0  0  0  0  0  0  0  0  0  0  0
  -10.5000  -12.9904    0.0000 C   0  0  0  0  0  0  0  0  0  0  0  0
  -12.0000  -12.9904    0.0000 C   0  0  0  0  0  0  0  0  0  0  0  0
  -12.7500  -14.2894    0.0000 C   0  0  0  0  0  0  0  0  0  0  0  0
  -12.0000  -15.5885    0.0000 O   0  0  0  0  0  0  0  0  0  0  0  0
  -14.2500  -14.2894    0.0000 O   0  0  0  0  0  0  0  0  0  0  0  0
   -6.0000  -10.3923    0.0000 C   0  0  0  0  0  0  0  0  0  0  0  0
   -5.2500   -9.0933    0.0000 C   0  0  0  0  0  0  0  0  0  0  0  0
  2  1  1  6
  2  3  1  0
  2  4  1  0
  4  5  1  0
  6  5  1  1
  6  7  1  0
  7  8  1  0
  8  9  1  1
  9 10  1  0
 10 11  1  0
 11 12  1  1
  8 13  1  0
 13 14  1  1
 13 15  1  0
 15 16  1  0
 16 17  1  0
 17 18  2  0
 17 19  1  0
 19 20  2  0
 20 21  1  0
 21 22  1  0
 22 23  1  6
 23 24  1  0
 24 25  1  0
 25 26  1  0
 26 27  1  0
 27 28  2  0
 28 29  1  0
 29 30  2  0
 30 31  1  0
 31 32  1  0
 32 33  1  0
 33 34  1  0
 34 35  1  0
 35 36  2  0
 35 37  1  0
 30 38  1  0
 38 39  2  0
 11  2  1  0
 20 13  1  0
 39 27  1  0
 11  6  1  0
  7 22  1  6
M  END
>  <assay_chembl_id>  (151) 
CHEMBL899661

>  <assay_description>  (151) 
Antagonist activity at human androgen receptor expressed in HeLa cells assessed as inhibition of dihydrotestosterone induced transcriptional activity by reporter gene assay

>  <parent_molecule_chembl_id>  (151) 
CHEMBL238000

>  <canonical_smiles>  (151) 
C[C@]1(O)CC[C@H]2[C@H]3[C@H](CC[C@@]21C)[C@@]1(C)CCC(=O)C=C1C[C@H]3CCCCc1ccc(OCCCC(=O)O)cc1

>  <standard_type>  (151) 
IC50

>  <standard_relation>  (151) 
=

>  <standard_value>  (151) 
850.0

>  <standard_units>  (151) 
nM

>  <target_pref_name>  (151) 
Androgen Receptor

>  <target_chembl_id>  (151) 
CHEMBL1871

>  <target_organism>  (151) 
Homo sapiens

>  <pchembl_median>  (151) 
6.23

$$$$
CHEMBL237971
     RDKit          2D

 38 42  0  0  0  0  0  0  0  0999 V2000
    4.2135   -7.9218    0.0000 C   0  0  0  0  0  0  0  0  0  0  0  0
    3.4635   -6.6227    0.0000 C   0  0  0  0  0  0  0  0  0  0  0  0
    4.8980   -6.1842    0.0000 O   0  0  0  0  0  0  0  0  0  0  0  0
    2.2500   -7.5044    0.0000 C   0  0  0  0  0  0  0  0  0  0  0  0
    1.0365   -6.6227    0.0000 C   0  0  0  0  0  0  0  0  0  0  0  0
    1.5000   -5.1962    0.0000 C   0  0  0  0  0  0  0  0  0  0  0  0
    0.7500   -3.8971    0.0000 C   0  0  0  0  0  0  0  0  0  0  0  0
    1.5000   -2.5981    0.0000 C   0  0  0  0  0  0  0  0  0  0  0  0
    3.0000   -2.5981    0.0000 C   0  0  0  0  0  0  0  0  0  0  0  0
    3.7500   -3.8971    0.0000 C   0  0  0  0  0  0  0  0  0  0  0  0
    3.0000   -5.1962    0.0000 C   0  0  0  0  0  0  0  0  0  0  0  0
    4.4998   -5.1699    0.0000 C   0  0  0  0  0  0  0  0  0  0  0  0
    0.7500   -1.2990    0.0000 C   0  0  0  0  0  0  0  0  0  0  0  0
    2.2500   -1.2990    0.0000 C   0  0  0  0  0  0  0  0  0  0  0  0
    1.5000    0.0000    0.0000 C   0  0  0  0  0  0  0  0  0  0  0  0
    0.7500    1.2990    0.0000 C   0  0  0  0  0  0  0  0  0  0  0  0
   -0.7500    1.2990    0.0000 C   0  0  0  0  0  0  0  0  0  0  0  0
   -1.5000    2.5981    0.0000 O   0  0  0  0  0  0  0  0  0  0  0  0
   -1.5000    0.0000    0.0000 C   0  0  0  0  0  0  0  0  0  0  0  0
   -0.7500   -1.2990    0.0000 C   0  0  0  0  0  0  0  0  0  0  0  0
   -1.5000   -2.5981    0.0000 C   0  0  0  0  0  0  0  0  0  0  0  0
   -0.7500   -3.8971    0.0000 C   0  0  0  0  0  0  0  0  0  0  0  0
   -1.5000   -5.1962    0.0000 C   0  0  0  0  0  0  0  0  0  0  0  0
   -3.0000   -5.1962    0.0000 C   0  0  0  0  0  0  0  0  0  0  0  0
   -3.7500   -6.4952    0.0000 C   0  0  0  0  0  0  0  0  0  0  0  0
   -5.2500   -6.4952    0.0000 C   0  0  0  0  0  0  0  0  0  0  0  0
   -6.0000   -5.1962    0.0000 C   0  0  0  0  0  0  0  0  0  0  0  0
   -7.5000   -5.1962    0.0000 C   0  0  0  0  0  0  0  0  0  0  0  0
   -8.2500   -6.4952    0.0000 C   0  0  0  0  0  0  0  0  0  0  0  0
   -7.5000   -7.7942    0.0000 C   0  0  0  0  0  0  0  0  0  0  0  0
   -8.2500   -9.0933    0.0000 O   0  0  0  0  0  0  0  0  0  0  0  0
   -9.7500   -9.0933    0.0000 C   0  0  0  0  0  0  0  0  0  0  0  0
  -10.5000  -10.3923    0.0000 C   0  0  0  0  0  0  0  0  0  0  0  0
  -12.0000  -10.3923    0.0000 C   0  0  0  0  0  0  0  0  0  0  0  0
  -12.7500  -11.6913    0.0000 C   0  0  0  0  0  0  0  0  0  0  0  0
  -12.0000  -12.9904    0.0000 O   0  0  0  0  0  0  0  0  0  0  0  0
  -14.2500  -11.6913    0.0000 O   0  0  0  0  0  0  0  0  0  0  0  0
   -6.0000   -7.7942    0.0000 C   0  0  0  0  0  0  0  0  0  0  0  0
  2  1  1  6
  2  3  1  0
  2  4  1  0
  4  5  1  0
  6  5  1  1
  6  7  1  0
  7  8  1  0
  8  9  1  1
  9 10  1  0
 10 11  1  0
 11 12  1  1
  8 13  1  0
 13 14  1  1
 13 15  1  0
 15 16  1  0
 16 17  1  0
 17 18  2  0
 17 19  1  0
 19 20  2  0
 20 21  1  0
 21 22  1  0
 22 23  1  6
 23 24  1  0
 24 25  1  0
 25 26  1  0
 26 27  2  0
 27 28  1  0
 28 29  2  0
 29 30  1  0
 30 31  1  0
 31 32  1  0
 32 33  1  0
 33 34  1  0
 34 35  1  0
 35 36  2  0
 35 37  1  0
 30 38  2  0
 11  2  1  0
 20 13  1  0
 38 26  1  0
 11  6  1  0
  7 22  1  6
M  END
>  <assay_chembl_id>  (152) 
CHEMBL899661

>  <assay_description>  (152) 
Antagonist activity at human androgen receptor expressed in HeLa cells assessed as inhibition of dihydrotestosterone induced transcriptional activity by reporter gene assay

>  <parent_molecule_chembl_id>  (152) 
CHEMBL237971

>  <canonical_smiles>  (152) 
C[C@]1(O)CC[C@H]2[C@H]3[C@H](CC[C@@]21C)[C@@]1(C)CCC(=O)C=C1C[C@H]3CCCc1cccc(OCCCC(=O)O)c1

>  <standard_type>  (152) 
IC50

>  <standard_relation>  (152) 
=

>  <standard_value>  (152) 
5800.0

>  <standard_units>  (152) 
nM

>  <target_pref_name>  (152) 
Androgen Receptor

>  <target_chembl_id>  (152) 
CHEMBL1871

>  <target_organism>  (152) 
Homo sapiens

>  <pchembl_median>  (152) 
6.52

$$$$
CHEMBL248868
     RDKit          2D

 19 19  0  0  0  0  0  0  0  0999 V2000
    6.0000   -2.5981    0.0000 C   0  0  0  0  0  0  0  0  0  0  0  0
    5.2500   -1.2990    0.0000 C   0  0  0  0  0  0  0  0  0  0  0  0
    3.7500   -1.2990    0.0000 C   0  0  0  0  0  0  0  0  0  0  0  0
    3.0000    0.0000    0.0000 N   0  0  0  0  0  0  0  0  0  0  0  0
    3.7500    1.2990    0.0000 C   0  0  0  0  0  0  0  0  0  0  0  0
    5.2500    1.2990    0.0000 C   0  0  0  0  0  0  0  0  0  0  0  0
    6.0000    2.5981    0.0000 C   0  0  0  0  0  0  0  0  0  0  0  0
    1.5000    0.0000    0.0000 C   0  0  0  0  0  0  0  0  0  0  0  0
    0.7500   -1.2990    0.0000 C   0  0  0  0  0  0  0  0  0  0  0  0
   -0.7500   -1.2990    0.0000 C   0  0  0  0  0  0  0  0  0  0  0  0
   -1.5000   -2.5981    0.0000 C   0  0  0  0  0  0  0  0  0  0  0  0
   -2.2500   -3.8971    0.0000 F   0  0  0  0  0  0  0  0  0  0  0  0
   -0.2010   -3.3481    0.0000 F   0  0  0  0  0  0  0  0  0  0  0  0
   -2.7990   -1.8481    0.0000 F   0  0  0  0  0  0  0  0  0  0  0  0
   -1.5000    0.0000    0.0000 C   0  0  0  0  0  0  0  0  0  0  0  0
   -3.0000    0.0000    0.0000 C   0  0  0  0  0  0  0  0  0  0  0  0
   -4.5000    0.0000    0.0000 N   0  0  0  0  0  0  0  0  0  0  0  0
   -0.7500    1.2990    0.0000 C   0  0  0  0  0  0  0  0  0  0  0  0
    0.7500    1.2990    0.0000 N   0  0  0  0  0  0  0  0  0  0  0  0
  1  2  1  0
  2  3  1  0
  3  4  1  0
  4  5  1  0
  5  6  1  0
  6  7  1  0
  4  8  1  0
  8  9  2  0
  9 10  1  0
 10 11  1  0
 11 12  1  0
 11 13  1  0
 11 14  1  0
 10 15  2  0
 15 16  1  0
 16 17  3  0
 15 18  1  0
 18 19  2  0
 19  8  1  0
M  END
>  <assay_chembl_id>  (153) 
CHEMBL940963

>  <assay_description>  (153) 
Displacement of [3H]dihydrotestosterone from human androgen receptor expressed in Sf9 cells

>  <parent_molecule_chembl_id>  (153) 
CHEMBL248868

>  <canonical_smiles>  (153) 
CCCN(CCC)c1cc(C(F)(F)F)c(C#N)cn1

>  <standard_type>  (153) 
IC50

>  <standard_relation>  (153) 
=

>  <standard_value>  (153) 
78.0

>  <standard_units>  (153) 
nM

>  <target_pref_name>  (153) 
Androgen Receptor

>  <target_chembl_id>  (153) 
CHEMBL1871

>  <target_organism>  (153) 
Homo sapiens

>  <pchembl_median>  (153) 
5.75

$$$$
CHEMBL9337
     RDKit          2D

 26 27  0  0  0  0  0  0  0  0999 V2000
    4.7302   -3.7586    0.0000 C   0  0  0  0  0  0  0  0  0  0  0  0
    3.3037   -4.2221    0.0000 C   0  0  0  0  0  0  0  0  0  0  0  0
    3.9138   -5.5924    0.0000 C   0  0  0  0  0  0  0  0  0  0  0  0
    2.9918   -2.7549    0.0000 C   0  0  0  0  0  0  0  0  0  0  0  0
    3.9955   -1.6402    0.0000 O   0  0  0  0  0  0  0  0  0  0  0  0
    1.5000   -2.5981    0.0000 N   0  0  0  0  0  0  0  0  0  0  0  0
    0.7500   -1.2990    0.0000 C   0  0  0  0  0  0  0  0  0  0  0  0
    1.5000    0.0000    0.0000 C   0  0  0  0  0  0  0  0  0  0  0  0
    0.7500    1.2990    0.0000 C   0  0  0  0  0  0  0  0  0  0  0  0
   -0.7500    1.2990    0.0000 C   0  0  0  0  0  0  0  0  0  0  0  0
   -1.5000    2.5981    0.0000 C   0  0  0  0  0  0  0  0  0  0  0  0
   -2.2500    3.8971    0.0000 N   0  0  0  0  0  0  0  0  0  0  0  0
   -1.5000    0.0000    0.0000 C   0  0  0  0  0  0  0  0  0  0  0  0
   -3.0000    0.0000    0.0000 C   0  0  0  0  0  0  0  0  0  0  0  0
   -4.5000    0.0000    0.0000 F   0  0  0  0  0  0  0  0  0  0  0  0
   -3.0000   -1.5000    0.0000 F   0  0  0  0  0  0  0  0  0  0  0  0
   -3.0000    1.5000    0.0000 F   0  0  0  0  0  0  0  0  0  0  0  0
   -0.7500   -1.2990    0.0000 C   0  0  0  0  0  0  0  0  0  0  0  0
    0.8899   -3.9684    0.0000 C   0  0  0  0  0  0  0  0  0  0  0  0
   -0.5773   -4.2803    0.0000 O   0  0  0  0  0  0  0  0  0  0  0  0
    2.0046   -4.9721    0.0000 N   0  0  0  0  0  0  0  0  0  0  0  0
    1.8478   -6.4639    0.0000 C   0  0  0  0  0  0  0  0  0  0  0  0
    0.4775   -7.0740    0.0000 C   0  0  0  0  0  0  0  0  0  0  0  0
    0.3207   -8.5658    0.0000 C   0  0  0  0  0  0  0  0  0  0  0  0
   -1.0496   -9.1759    0.0000 C   0  0  0  0  0  0  0  0  0  0  0  0
   -1.2064  -10.6676    0.0000 O   0  0  0  0  0  0  0  0  0  0  0  0
  1  2  1  0
  2  3  1  0
  2  4  1  0
  4  5  2  0
  4  6  1  0
  6  7  1  0
  7  8  2  0
  8  9  1  0
  9 10  2  0
 10 11  1  0
 11 12  3  0
 10 13  1  0
 13 14  1  0
 14 15  1  0
 14 16  1  0
 14 17  1  0
 13 18  2  0
  6 19  1  0
 19 20  2  0
 19 21  1  0
 21 22  1  0
 22 23  1  0
 23 24  1  0
 24 25  1  0
 25 26  1  0
 21  2  1  0
 18  7  1  0
M  END
>  <assay_chembl_id>  (154) 
CHEMBL940963

>  <assay_description>  (154) 
Displacement of [3H]dihydrotestosterone from human androgen receptor expressed in Sf9 cells

>  <parent_molecule_chembl_id>  (154) 
CHEMBL9337

>  <canonical_smiles>  (154) 
CC1(C)C(=O)N(c2ccc(C#N)c(C(F)(F)F)c2)C(=O)N1CCCCO

>  <standard_type>  (154) 
IC50

>  <standard_relation>  (154) 
=

>  <standard_value>  (154) 
15.9

>  <standard_units>  (154) 
nM

>  <target_pref_name>  (154) 
Androgen Receptor

>  <target_chembl_id>  (154) 
CHEMBL1871

>  <target_organism>  (154) 
Homo sapiens

>  <pchembl_median>  (154) 
6.76

$$$$
CHEMBL248878
     RDKit          2D

 21 22  0  0  0  0  0  0  0  0999 V2000
    1.5000   -5.1962    0.0000 C   0  0  0  0  0  0  0  0  0  0  0  0
    0.7500   -3.8971    0.0000 C   0  0  0  0  0  0  0  0  0  0  0  0
    1.5000   -2.5981    0.0000 N   0  0  0  0  0  0  0  0  0  0  0  0
    0.7500   -1.2990    0.0000 C   0  0  0  0  0  0  0  0  0  0  0  0
    1.5000    0.0000    0.0000 C   0  0  0  0  0  0  0  0  0  0  0  0
    0.7500    1.2990    0.0000 C   0  0  0  0  0  0  0  0  0  0  0  0
    1.5000    2.5981    0.0000 C   0  0  0  0  0  0  0  0  0  0  0  0
    2.2500    3.8971    0.0000 F   0  0  0  0  0  0  0  0  0  0  0  0
    2.7990    1.8481    0.0000 F   0  0  0  0  0  0  0  0  0  0  0  0
    0.2010    3.3481    0.0000 F   0  0  0  0  0  0  0  0  0  0  0  0
   -0.7500    1.2990    0.0000 C   0  0  0  0  0  0  0  0  0  0  0  0
   -1.5000    2.5981    0.0000 C   0  0  0  0  0  0  0  0  0  0  0  0
   -2.2500    3.8971    0.0000 N   0  0  0  0  0  0  0  0  0  0  0  0
   -1.5000    0.0000    0.0000 C   0  0  0  0  0  0  0  0  0  0  0  0
   -0.7500   -1.2990    0.0000 N   0  0  0  0  0  0  0  0  0  0  0  0
   -0.7500   -3.8971    0.0000 C   0  0  0  0  0  0  0  0  0  0  0  0
   -1.5000   -2.5981    0.0000 C   0  0  0  0  0  0  0  0  0  0  0  0
   -3.0000   -2.5981    0.0000 C   0  0  0  0  0  0  0  0  0  0  0  0
   -3.7500   -3.8971    0.0000 C   0  0  0  0  0  0  0  0  0  0  0  0
   -3.0000   -5.1962    0.0000 C   0  0  0  0  0  0  0  0  0  0  0  0
   -1.5000   -5.1962    0.0000 C   0  0  0  0  0  0  0  0  0  0  0  0
  2  1  1  6
  2  3  1  0
  3  4  1  0
  4  5  2  0
  5  6  1  0
  6  7  1  0
  7  8  1  0
  7  9  1  0
  7 10  1  0
  6 11  2  0
 11 12  1  0
 12 13  3  0
 11 14  1  0
 14 15  2  0
  2 16  1  0
 16 17  2  0
 17 18  1  0
 18 19  2  0
 19 20  1  0
 20 21  2  0
 15  4  1  0
 21 16  1  0
M  END
>  <assay_chembl_id>  (155) 
CHEMBL940963

>  <assay_description>  (155) 
Displacement of [3H]dihydrotestosterone from human androgen receptor expressed in Sf9 cells

>  <parent_molecule_chembl_id>  (155) 
CHEMBL248878

>  <canonical_smiles>  (155) 
C[C@@H](Nc1cc(C(F)(F)F)c(C#N)cn1)c1ccccc1

>  <standard_type>  (155) 
IC50

>  <standard_relation>  (155) 
=

>  <standard_value>  (155) 
4926.0

>  <standard_units>  (155) 
nM

>  <target_pref_name>  (155) 
Androgen Receptor

>  <target_chembl_id>  (155) 
CHEMBL1871

>  <target_organism>  (155) 
Homo sapiens

>  <pchembl_median>  (155) 
6.48

$$$$
CHEMBL400098
     RDKit          2D

 22 23  0  0  0  0  0  0  0  0999 V2000
    0.7500   -3.8971    0.0000 C   0  0  0  0  0  0  0  0  0  0  0  0
    1.5000   -2.5981    0.0000 C   0  0  0  0  0  0  0  0  0  0  0  0
    0.7500   -1.2990    0.0000 C   0  0  0  0  0  0  0  0  0  0  0  0
    1.5000    0.0000    0.0000 C   0  0  0  0  0  0  0  0  0  0  0  0
    0.7500    1.2990    0.0000 C   0  0  0  0  0  0  0  0  0  0  0  0
   -0.7500    1.2990    0.0000 C   0  0  0  0  0  0  0  0  0  0  0  0
   -1.5000    0.0000    0.0000 C   0  0  0  0  0  0  0  0  0  0  0  0
   -0.7500   -1.2990    0.0000 C   0  0  0  0  0  0  0  0  0  0  0  0
    3.0000   -2.5981    0.0000 N   0  0  0  0  0  0  0  0  0  0  0  0
    3.7500   -3.8971    0.0000 C   0  0  0  0  0  0  0  0  0  0  0  0
    3.7500   -1.2990    0.0000 C   0  0  0  0  0  0  0  0  0  0  0  0
    5.2500   -1.2990    0.0000 C   0  0  0  0  0  0  0  0  0  0  0  0
    6.0000   -0.0000    0.0000 C   0  0  0  0  0  0  0  0  0  0  0  0
    7.5000    0.0000    0.0000 C   0  0  0  0  0  0  0  0  0  0  0  0
    9.0000    0.0000    0.0000 F   0  0  0  0  0  0  0  0  0  0  0  0
    7.5000   -1.5000    0.0000 F   0  0  0  0  0  0  0  0  0  0  0  0
    7.5000    1.5000    0.0000 F   0  0  0  0  0  0  0  0  0  0  0  0
    5.2500    1.2990    0.0000 C   0  0  0  0  0  0  0  0  0  0  0  0
    6.0000    2.5981    0.0000 C   0  0  0  0  0  0  0  0  0  0  0  0
    6.7500    3.8971    0.0000 N   0  0  0  0  0  0  0  0  0  0  0  0
    3.7500    1.2990    0.0000 C   0  0  0  0  0  0  0  0  0  0  0  0
    3.0000   -0.0000    0.0000 N   0  0  0  0  0  0  0  0  0  0  0  0
  2  1  1  1
  2  3  1  0
  3  4  2  0
  4  5  1  0
  5  6  2  0
  6  7  1  0
  7  8  2  0
  2  9  1  0
  9 10  1  0
  9 11  1  0
 11 12  2  0
 12 13  1  0
 13 14  1  0
 14 15  1  0
 14 16  1  0
 14 17  1  0
 13 18  2  0
 18 19  1  0
 19 20  3  0
 18 21  1  0
 21 22  2  0
  8  3  1  0
 22 11  1  0
M  END
>  <assay_chembl_id>  (156) 
CHEMBL940963

>  <assay_description>  (156) 
Displacement of [3H]dihydrotestosterone from human androgen receptor expressed in Sf9 cells

>  <parent_molecule_chembl_id>  (156) 
CHEMBL400098

>  <canonical_smiles>  (156) 
C[C@@H](c1ccccc1)N(C)c1cc(C(F)(F)F)c(C#N)cn1

>  <standard_type>  (156) 
IC50

>  <standard_relation>  (156) 
=

>  <standard_value>  (156) 
1700.0

>  <standard_units>  (156) 
nM

>  <target_pref_name>  (156) 
Androgen Receptor

>  <target_chembl_id>  (156) 
CHEMBL1871

>  <target_organism>  (156) 
Homo sapiens

>  <pchembl_median>  (156) 
5.43

$$$$
CHEMBL399876
     RDKit          2D

 22 23  0  0  0  0  0  0  0  0999 V2000
    0.7500   -3.8971    0.0000 C   0  0  0  0  0  0  0  0  0  0  0  0
    1.5000   -2.5981    0.0000 C   0  0  0  0  0  0  0  0  0  0  0  0
    0.7500   -1.2990    0.0000 C   0  0  0  0  0  0  0  0  0  0  0  0
    1.5000    0.0000    0.0000 C   0  0  0  0  0  0  0  0  0  0  0  0
    0.7500    1.2990    0.0000 C   0  0  0  0  0  0  0  0  0  0  0  0
   -0.7500    1.2990    0.0000 C   0  0  0  0  0  0  0  0  0  0  0  0
   -1.5000    0.0000    0.0000 C   0  0  0  0  0  0  0  0  0  0  0  0
   -0.7500   -1.2990    0.0000 C   0  0  0  0  0  0  0  0  0  0  0  0
    3.0000   -2.5981    0.0000 N   0  0  0  0  0  0  0  0  0  0  0  0
    3.7500   -3.8971    0.0000 C   0  0  0  0  0  0  0  0  0  0  0  0
    3.7500   -1.2990    0.0000 C   0  0  0  0  0  0  0  0  0  0  0  0
    5.2500   -1.2990    0.0000 C   0  0  0  0  0  0  0  0  0  0  0  0
    6.0000   -0.0000    0.0000 C   0  0  0  0  0  0  0  0  0  0  0  0
    7.5000    0.0000    0.0000 C   0  0  0  0  0  0  0  0  0  0  0  0
    9.0000    0.0000    0.0000 F   0  0  0  0  0  0  0  0  0  0  0  0
    7.5000   -1.5000    0.0000 F   0  0  0  0  0  0  0  0  0  0  0  0
    7.5000    1.5000    0.0000 F   0  0  0  0  0  0  0  0  0  0  0  0
    5.2500    1.2990    0.0000 C   0  0  0  0  0  0  0  0  0  0  0  0
    6.0000    2.5981    0.0000 C   0  0  0  0  0  0  0  0  0  0  0  0
    6.7500    3.8971    0.0000 N   0  0  0  0  0  0  0  0  0  0  0  0
    3.7500    1.2990    0.0000 C   0  0  0  0  0  0  0  0  0  0  0  0
    3.0000   -0.0000    0.0000 N   0  0  0  0  0  0  0  0  0  0  0  0
  1  2  1  0
  2  3  1  0
  3  4  2  0
  4  5  1  0
  5  6  2  0
  6  7  1  0
  7  8  2  0
  2  9  1  0
  9 10  1  0
  9 11  1  0
 11 12  2  0
 12 13  1  0
 13 14  1  0
 14 15  1  0
 14 16  1  0
 14 17  1  0
 13 18  2  0
 18 19  1  0
 19 20  3  0
 18 21  1  0
 21 22  2  0
  8  3  1  0
 22 11  1  0
M  END
>  <assay_chembl_id>  (157) 
CHEMBL940963

>  <assay_description>  (157) 
Displacement of [3H]dihydrotestosterone from human androgen receptor expressed in Sf9 cells

>  <parent_molecule_chembl_id>  (157) 
CHEMBL399876

>  <canonical_smiles>  (157) 
CC(c1ccccc1)N(C)c1cc(C(F)(F)F)c(C#N)cn1

>  <standard_type>  (157) 
IC50

>  <standard_relation>  (157) 
=

>  <standard_value>  (157) 
123.0

>  <standard_units>  (157) 
nM

>  <target_pref_name>  (157) 
Androgen Receptor

>  <target_chembl_id>  (157) 
CHEMBL1871

>  <target_organism>  (157) 
Homo sapiens

>  <pchembl_median>  (157) 
7.96

$$$$
CHEMBL248841
     RDKit          2D

 22 24  0  0  0  0  0  0  0  0999 V2000
   -4.5000  -10.3923    0.0000 N   0  0  0  0  0  0  0  0  0  0  0  0
   -3.7500   -9.0933    0.0000 C   0  0  0  0  0  0  0  0  0  0  0  0
   -3.0000   -7.7942    0.0000 C   0  0  0  0  0  0  0  0  0  0  0  0
   -3.7500   -6.4952    0.0000 C   0  0  0  0  0  0  0  0  0  0  0  0
   -3.0000   -5.1962    0.0000 N   0  0  0  0  0  0  0  0  0  0  0  0
   -1.5000   -5.1962    0.0000 C   0  0  0  0  0  0  0  0  0  0  0  0
   -0.7500   -3.8971    0.0000 N   0  0  0  0  0  0  0  0  0  0  0  0
    0.7500   -3.8971    0.0000 C   0  0  0  0  0  0  0  0  0  0  0  0
    1.5000   -2.5981    0.0000 C   0  0  0  0  0  0  0  0  0  0  0  0
    0.7500   -1.2990    0.0000 C   0  0  0  0  0  0  0  0  0  0  0  0
    1.5000    0.0000    0.0000 C   0  0  0  0  0  0  0  0  0  0  0  0
    0.7500    1.2990    0.0000 C   0  0  0  0  0  0  0  0  0  0  0  0
   -0.7500    1.2990    0.0000 C   0  0  0  0  0  0  0  0  0  0  0  0
   -1.5000    0.0000    0.0000 C   0  0  0  0  0  0  0  0  0  0  0  0
   -0.7500   -1.2990    0.0000 C   0  0  0  0  0  0  0  0  0  0  0  0
   -1.5000   -2.5981    0.0000 C   0  0  0  0  0  0  0  0  0  0  0  0
   -0.7500   -6.4952    0.0000 C   0  0  0  0  0  0  0  0  0  0  0  0
   -1.5000   -7.7942    0.0000 C   0  0  0  0  0  0  0  0  0  0  0  0
   -0.7500   -9.0933    0.0000 C   0  0  0  0  0  0  0  0  0  0  0  0
   -0.0000  -10.3923    0.0000 F   0  0  0  0  0  0  0  0  0  0  0  0
    0.5490   -8.3433    0.0000 F   0  0  0  0  0  0  0  0  0  0  0  0
   -2.0490   -9.8433    0.0000 F   0  0  0  0  0  0  0  0  0  0  0  0
  1  2  3  0
  2  3  1  0
  3  4  2  0
  4  5  1  0
  5  6  2  0
  6  7  1  0
  7  8  1  0
  8  9  1  0
  9 10  1  0
 10 11  1  0
 11 12  1  0
 12 13  1  0
 13 14  1  0
 14 15  1  0
 15 16  1  0
  6 17  1  0
 17 18  2  0
 18 19  1  0
 19 20  1  0
 19 21  1  0
 19 22  1  0
 18  3  1  0
 16  7  1  0
 15 10  1  0
M  END
>  <assay_chembl_id>  (158) 
CHEMBL940963

>  <assay_description>  (158) 
Displacement of [3H]dihydrotestosterone from human androgen receptor expressed in Sf9 cells

>  <parent_molecule_chembl_id>  (158) 
CHEMBL248841

>  <canonical_smiles>  (158) 
N#Cc1cnc(N2CCC3CCCCC3C2)cc1C(F)(F)F

>  <standard_type>  (158) 
IC50

>  <standard_relation>  (158) 
=

>  <standard_value>  (158) 
169.0

>  <standard_units>  (158) 
nM

>  <target_pref_name>  (158) 
Androgen Receptor

>  <target_chembl_id>  (158) 
CHEMBL1871

>  <target_organism>  (158) 
Homo sapiens

>  <pchembl_median>  (158) 
5.1

$$$$
CHEMBL249072
     RDKit          2D

 19 20  0  0  0  0  0  0  0  0999 V2000
    3.0000    0.0000    0.0000 C   0  0  0  0  0  0  0  0  0  0  0  0
    1.5000    0.0000    0.0000 C   0  0  0  0  0  0  0  0  0  0  0  0
    0.7500   -1.2990    0.0000 C   0  0  0  0  0  0  0  0  0  0  0  0
   -0.7500   -1.2990    0.0000 C   0  0  0  0  0  0  0  0  0  0  0  0
   -1.5000    0.0000    0.0000 N   0  0  0  0  0  0  0  0  0  0  0  0
   -3.0000    0.0000    0.0000 C   0  0  0  0  0  0  0  0  0  0  0  0
   -3.7500    1.2990    0.0000 C   0  0  0  0  0  0  0  0  0  0  0  0
   -5.2500    1.2990    0.0000 C   0  0  0  0  0  0  0  0  0  0  0  0
   -6.0000    2.5981    0.0000 C   0  0  0  0  0  0  0  0  0  0  0  0
   -6.7500    3.8971    0.0000 F   0  0  0  0  0  0  0  0  0  0  0  0
   -4.7010    3.3481    0.0000 F   0  0  0  0  0  0  0  0  0  0  0  0
   -7.2990    1.8481    0.0000 F   0  0  0  0  0  0  0  0  0  0  0  0
   -6.0000    0.0000    0.0000 C   0  0  0  0  0  0  0  0  0  0  0  0
   -7.5000    0.0000    0.0000 C   0  0  0  0  0  0  0  0  0  0  0  0
   -9.0000   -0.0000    0.0000 N   0  0  0  0  0  0  0  0  0  0  0  0
   -5.2500   -1.2990    0.0000 C   0  0  0  0  0  0  0  0  0  0  0  0
   -3.7500   -1.2990    0.0000 N   0  0  0  0  0  0  0  0  0  0  0  0
   -0.7500    1.2990    0.0000 C   0  0  0  0  0  0  0  0  0  0  0  0
    0.7500    1.2990    0.0000 C   0  0  0  0  0  0  0  0  0  0  0  0
  1  2  1  0
  2  3  1  0
  3  4  1  0
  4  5  1  0
  5  6  1  0
  6  7  2  0
  7  8  1  0
  8  9  1  0
  9 10  1  0
  9 11  1  0
  9 12  1  0
  8 13  2  0
 13 14  1  0
 14 15  3  0
 13 16  1  0
 16 17  2  0
  5 18  1  0
 18 19  1  0
 19  2  1  0
 17  6  1  0
M  END
>  <assay_chembl_id>  (159) 
CHEMBL940963

>  <assay_description>  (159) 
Displacement of [3H]dihydrotestosterone from human androgen receptor expressed in Sf9 cells

>  <parent_molecule_chembl_id>  (159) 
CHEMBL249072

>  <canonical_smiles>  (159) 
CC1CCN(c2cc(C(F)(F)F)c(C#N)cn2)CC1

>  <standard_type>  (159) 
IC50

>  <standard_relation>  (159) 
=

>  <standard_value>  (159) 
73.0

>  <standard_units>  (159) 
nM

>  <target_pref_name>  (159) 
Androgen Receptor

>  <target_chembl_id>  (159) 
CHEMBL1871

>  <target_organism>  (159) 
Homo sapiens

>  <pchembl_median>  (159) 
7.07

$$$$
CHEMBL398432
     RDKit          2D

 18 19  0  0  0  0  0  0  0  0999 V2000
    4.5000    0.0000    0.0000 N   0  0  0  0  0  0  0  0  0  0  0  0
    3.0000    0.0000    0.0000 C   0  0  0  0  0  0  0  0  0  0  0  0
    1.5000    0.0000    0.0000 C   0  0  0  0  0  0  0  0  0  0  0  0
    0.7500   -1.2990    0.0000 C   0  0  0  0  0  0  0  0  0  0  0  0
   -0.7500   -1.2990    0.0000 N   0  0  0  0  0  0  0  0  0  0  0  0
   -1.5000    0.0000    0.0000 C   0  0  0  0  0  0  0  0  0  0  0  0
   -3.0000    0.0000    0.0000 N   0  0  0  0  0  0  0  0  0  0  0  0
   -3.7500    1.2990    0.0000 C   0  0  0  0  0  0  0  0  0  0  0  0
   -5.2500    1.2990    0.0000 C   0  0  0  0  0  0  0  0  0  0  0  0
   -6.0000    0.0000    0.0000 C   0  0  0  0  0  0  0  0  0  0  0  0
   -5.2500   -1.2990    0.0000 C   0  0  0  0  0  0  0  0  0  0  0  0
   -3.7500   -1.2990    0.0000 C   0  0  0  0  0  0  0  0  0  0  0  0
   -0.7500    1.2990    0.0000 C   0  0  0  0  0  0  0  0  0  0  0  0
    0.7500    1.2990    0.0000 C   0  0  0  0  0  0  0  0  0  0  0  0
    1.5000    2.5981    0.0000 C   0  0  0  0  0  0  0  0  0  0  0  0
    2.2500    3.8971    0.0000 F   0  0  0  0  0  0  0  0  0  0  0  0
    0.2010    3.3481    0.0000 F   0  0  0  0  0  0  0  0  0  0  0  0
    2.7990    1.8481    0.0000 F   0  0  0  0  0  0  0  0  0  0  0  0
  1  2  3  0
  2  3  1  0
  3  4  2  0
  4  5  1  0
  5  6  2  0
  6  7  1  0
  7  8  1  0
  8  9  1  0
  9 10  1  0
 10 11  1  0
 11 12  1  0
  6 13  1  0
 13 14  2  0
 14 15  1  0
 15 16  1  0
 15 17  1  0
 15 18  1  0
 14  3  1  0
 12  7  1  0
M  END
>  <assay_chembl_id>  (160) 
CHEMBL940963

>  <assay_description>  (160) 
Displacement of [3H]dihydrotestosterone from human androgen receptor expressed in Sf9 cells

>  <parent_molecule_chembl_id>  (160) 
CHEMBL398432

>  <canonical_smiles>  (160) 
N#Cc1cnc(N2CCCCC2)cc1C(F)(F)F

>  <standard_type>  (160) 
IC50

>  <standard_relation>  (160) 
=

>  <standard_value>  (160) 
209.0

>  <standard_units>  (160) 
nM

>  <target_pref_name>  (160) 
Androgen Receptor

>  <target_chembl_id>  (160) 
CHEMBL1871

>  <target_organism>  (160) 
Homo sapiens

>  <pchembl_median>  (160) 
6.07

$$$$
CHEMBL249071
     RDKit          2D

 18 18  0  0  0  0  0  0  0  0999 V2000
    7.5000    2.5981    0.0000 C   0  0  0  0  0  0  0  0  0  0  0  0
    6.0000    2.5981    0.0000 C   0  0  0  0  0  0  0  0  0  0  0  0
    5.2500    1.2990    0.0000 C   0  0  0  0  0  0  0  0  0  0  0  0
    3.7500    1.2990    0.0000 C   0  0  0  0  0  0  0  0  0  0  0  0
    3.0000    0.0000    0.0000 N   0  0  0  0  0  0  0  0  0  0  0  0
    3.7500   -1.2990    0.0000 C   0  0  0  0  0  0  0  0  0  0  0  0
    1.5000    0.0000    0.0000 C   0  0  0  0  0  0  0  0  0  0  0  0
    0.7500   -1.2990    0.0000 C   0  0  0  0  0  0  0  0  0  0  0  0
   -0.7500   -1.2990    0.0000 C   0  0  0  0  0  0  0  0  0  0  0  0
   -1.5000   -2.5981    0.0000 C   0  0  0  0  0  0  0  0  0  0  0  0
   -2.2500   -3.8971    0.0000 F   0  0  0  0  0  0  0  0  0  0  0  0
   -0.2010   -3.3481    0.0000 F   0  0  0  0  0  0  0  0  0  0  0  0
   -2.7990   -1.8481    0.0000 F   0  0  0  0  0  0  0  0  0  0  0  0
   -1.5000    0.0000    0.0000 C   0  0  0  0  0  0  0  0  0  0  0  0
   -3.0000    0.0000    0.0000 C   0  0  0  0  0  0  0  0  0  0  0  0
   -4.5000    0.0000    0.0000 N   0  0  0  0  0  0  0  0  0  0  0  0
   -0.7500    1.2990    0.0000 C   0  0  0  0  0  0  0  0  0  0  0  0
    0.7500    1.2990    0.0000 N   0  0  0  0  0  0  0  0  0  0  0  0
  1  2  1  0
  2  3  1  0
  3  4  1  0
  4  5  1  0
  5  6  1  0
  5  7  1  0
  7  8  2  0
  8  9  1  0
  9 10  1  0
 10 11  1  0
 10 12  1  0
 10 13  1  0
  9 14  2  0
 14 15  1  0
 15 16  3  0
 14 17  1  0
 17 18  2  0
 18  7  1  0
M  END
>  <assay_chembl_id>  (161) 
CHEMBL940963

>  <assay_description>  (161) 
Displacement of [3H]dihydrotestosterone from human androgen receptor expressed in Sf9 cells

>  <parent_molecule_chembl_id>  (161) 
CHEMBL249071

>  <canonical_smiles>  (161) 
CCCCN(C)c1cc(C(F)(F)F)c(C#N)cn1

>  <standard_type>  (161) 
IC50

>  <standard_relation>  (161) 
=

>  <standard_value>  (161) 
3.8

>  <standard_units>  (161) 
nM

>  <target_pref_name>  (161) 
Androgen Receptor

>  <target_chembl_id>  (161) 
CHEMBL1871

>  <target_organism>  (161) 
Homo sapiens

>  <pchembl_median>  (161) 
6.68

$$$$
CHEMBL249070
     RDKit          2D

 18 18  0  0  0  0  0  0  0  0999 V2000
    3.7500    3.8971    0.0000 C   0  0  0  0  0  0  0  0  0  0  0  0
    3.0000    2.5981    0.0000 C   0  0  0  0  0  0  0  0  0  0  0  0
    3.7500    1.2990    0.0000 C   0  0  0  0  0  0  0  0  0  0  0  0
    5.2500    1.2990    0.0000 C   0  0  0  0  0  0  0  0  0  0  0  0
    3.0000    0.0000    0.0000 N   0  0  0  0  0  0  0  0  0  0  0  0
    3.7500   -1.2990    0.0000 C   0  0  0  0  0  0  0  0  0  0  0  0
    1.5000    0.0000    0.0000 C   0  0  0  0  0  0  0  0  0  0  0  0
    0.7500   -1.2990    0.0000 C   0  0  0  0  0  0  0  0  0  0  0  0
   -0.7500   -1.2990    0.0000 C   0  0  0  0  0  0  0  0  0  0  0  0
   -1.5000   -2.5981    0.0000 C   0  0  0  0  0  0  0  0  0  0  0  0
   -2.2500   -3.8971    0.0000 F   0  0  0  0  0  0  0  0  0  0  0  0
   -0.2010   -3.3481    0.0000 F   0  0  0  0  0  0  0  0  0  0  0  0
   -2.7990   -1.8481    0.0000 F   0  0  0  0  0  0  0  0  0  0  0  0
   -1.5000    0.0000    0.0000 C   0  0  0  0  0  0  0  0  0  0  0  0
   -3.0000    0.0000    0.0000 C   0  0  0  0  0  0  0  0  0  0  0  0
   -4.5000    0.0000    0.0000 N   0  0  0  0  0  0  0  0  0  0  0  0
   -0.7500    1.2990    0.0000 C   0  0  0  0  0  0  0  0  0  0  0  0
    0.7500    1.2990    0.0000 N   0  0  0  0  0  0  0  0  0  0  0  0
  1  2  1  0
  2  3  1  0
  3  4  1  0
  3  5  1  0
  5  6  1  0
  5  7  1  0
  7  8  2  0
  8  9  1  0
  9 10  1  0
 10 11  1  0
 10 12  1  0
 10 13  1  0
  9 14  2  0
 14 15  1  0
 15 16  3  0
 14 17  1  0
 17 18  2  0
 18  7  1  0
M  END
>  <assay_chembl_id>  (162) 
CHEMBL940963

>  <assay_description>  (162) 
Displacement of [3H]dihydrotestosterone from human androgen receptor expressed in Sf9 cells

>  <parent_molecule_chembl_id>  (162) 
CHEMBL249070

>  <canonical_smiles>  (162) 
CCC(C)N(C)c1cc(C(F)(F)F)c(C#N)cn1

>  <standard_type>  (162) 
IC50

>  <standard_relation>  (162) 
=

>  <standard_value>  (162) 
7.0

>  <standard_units>  (162) 
nM

>  <target_pref_name>  (162) 
Androgen Receptor

>  <target_chembl_id>  (162) 
CHEMBL1871

>  <target_organism>  (162) 
Homo sapiens

>  <pchembl_median>  (162) 
6.14

$$$$
CHEMBL398431
     RDKit          2D

 20 21  0  0  0  0  0  0  0  0999 V2000
    0.7500   -6.4952    0.0000 C   0  0  0  0  0  0  0  0  0  0  0  0
    1.5000   -5.1962    0.0000 C   0  0  0  0  0  0  0  0  0  0  0  0
    0.7500   -3.8971    0.0000 C   0  0  0  0  0  0  0  0  0  0  0  0
    1.5000   -2.5981    0.0000 N   0  0  0  0  0  0  0  0  0  0  0  0
    3.0000   -2.5981    0.0000 C   0  0  0  0  0  0  0  0  0  0  0  0
    3.7500   -3.8971    0.0000 C   0  0  0  0  0  0  0  0  0  0  0  0
    5.0490   -4.6471    0.0000 C   0  0  0  0  0  0  0  0  0  0  0  0
    3.7500   -5.3971    0.0000 C   0  0  0  0  0  0  0  0  0  0  0  0
    0.7500   -1.2990    0.0000 C   0  0  0  0  0  0  0  0  0  0  0  0
    1.5000    0.0000    0.0000 C   0  0  0  0  0  0  0  0  0  0  0  0
    0.7500    1.2990    0.0000 C   0  0  0  0  0  0  0  0  0  0  0  0
    1.5000    2.5981    0.0000 C   0  0  0  0  0  0  0  0  0  0  0  0
    2.2500    3.8971    0.0000 F   0  0  0  0  0  0  0  0  0  0  0  0
    2.7990    1.8481    0.0000 F   0  0  0  0  0  0  0  0  0  0  0  0
    0.2010    3.3481    0.0000 F   0  0  0  0  0  0  0  0  0  0  0  0
   -0.7500    1.2990    0.0000 C   0  0  0  0  0  0  0  0  0  0  0  0
   -1.5000    2.5981    0.0000 C   0  0  0  0  0  0  0  0  0  0  0  0
   -2.2500    3.8971    0.0000 N   0  0  0  0  0  0  0  0  0  0  0  0
   -1.5000    0.0000    0.0000 C   0  0  0  0  0  0  0  0  0  0  0  0
   -0.7500   -1.2990    0.0000 N   0  0  0  0  0  0  0  0  0  0  0  0
  1  2  1  0
  2  3  1  0
  3  4  1  0
  4  5  1  0
  5  6  1  0
  6  7  1  0
  7  8  1  0
  4  9  1  0
  9 10  2  0
 10 11  1  0
 11 12  1  0
 12 13  1  0
 12 14  1  0
 12 15  1  0
 11 16  2  0
 16 17  1  0
 17 18  3  0
 16 19  1  0
 19 20  2  0
  8  6  1  0
 20  9  1  0
M  END
>  <assay_chembl_id>  (163) 
CHEMBL940963

>  <assay_description>  (163) 
Displacement of [3H]dihydrotestosterone from human androgen receptor expressed in Sf9 cells

>  <parent_molecule_chembl_id>  (163) 
CHEMBL398431

>  <canonical_smiles>  (163) 
CCCN(CC1CC1)c1cc(C(F)(F)F)c(C#N)cn1

>  <standard_type>  (163) 
IC50

>  <standard_relation>  (163) 
=

>  <standard_value>  (163) 
0.8

>  <standard_units>  (163) 
nM

>  <target_pref_name>  (163) 
Androgen Receptor

>  <target_chembl_id>  (163) 
CHEMBL1871

>  <target_organism>  (163) 
Homo sapiens

>  <pchembl_median>  (163) 
6.7

$$$$
CHEMBL399439
     RDKit          2D

 21 22  0  0  0  0  0  0  0  0999 V2000
    4.5000    0.0000    0.0000 N   0  0  0  0  0  0  0  0  0  0  0  0
    3.0000    0.0000    0.0000 C   0  0  0  0  0  0  0  0  0  0  0  0
    1.5000    0.0000    0.0000 C   0  0  0  0  0  0  0  0  0  0  0  0
    0.7500   -1.2990    0.0000 C   0  0  0  0  0  0  0  0  0  0  0  0
   -0.7500   -1.2990    0.0000 C   0  0  0  0  0  0  0  0  0  0  0  0
   -1.5000    0.0000    0.0000 C   0  0  0  0  0  0  0  0  0  0  0  0
   -3.0000    0.0000    0.0000 O   0  0  0  0  0  0  0  0  0  0  0  0
   -3.7500    1.2990    0.0000 C   0  0  0  0  0  0  0  0  0  0  0  0
   -3.0000    2.5981    0.0000 C   0  0  0  0  0  0  0  0  0  0  0  0
   -3.7500    3.8971    0.0000 C   0  0  0  0  0  0  0  0  0  0  0  0
   -5.2500    3.8971    0.0000 C   0  0  0  0  0  0  0  0  0  0  0  0
   -6.0000    2.5981    0.0000 C   0  0  0  0  0  0  0  0  0  0  0  0
   -5.2500    1.2990    0.0000 C   0  0  0  0  0  0  0  0  0  0  0  0
   -6.0000    0.0000    0.0000 C   0  0  0  0  0  0  0  0  0  0  0  0
   -6.7500   -1.2990    0.0000 N   0  0  0  0  0  0  0  0  0  0  0  0
   -0.7500    1.2990    0.0000 C   0  0  0  0  0  0  0  0  0  0  0  0
    0.7500    1.2990    0.0000 C   0  0  0  0  0  0  0  0  0  0  0  0
    1.5000    2.5981    0.0000 C   0  0  0  0  0  0  0  0  0  0  0  0
    2.2500    3.8971    0.0000 F   0  0  0  0  0  0  0  0  0  0  0  0
    0.2010    3.3481    0.0000 F   0  0  0  0  0  0  0  0  0  0  0  0
    2.7990    1.8481    0.0000 F   0  0  0  0  0  0  0  0  0  0  0  0
  1  2  3  0
  2  3  1  0
  3  4  2  0
  4  5  1  0
  5  6  2  0
  6  7  1  0
  8  7  1  6
  8  9  1  0
  9 10  1  0
 10 11  1  0
 11 12  1  0
 12 13  1  0
 13 14  1  1
 14 15  3  0
  6 16  1  0
 16 17  2  0
 17 18  1  0
 18 19  1  0
 18 20  1  0
 18 21  1  0
 17  3  1  0
 13  8  1  0
M  END
>  <assay_chembl_id>  (164) 
CHEMBL923797

>  <assay_description>  (164) 
Antagonist activity at androgen receptor expressed in MDA-MB-453 cells assessed as inhibition of dihydrotestosterone-induced response in reporter gene assay

>  <parent_molecule_chembl_id>  (164) 
CHEMBL399439

>  <canonical_smiles>  (164) 
N#Cc1ccc(O[C@H]2CCCC[C@@H]2C#N)cc1C(F)(F)F

>  <standard_type>  (164) 
IC50

>  <standard_relation>  (164) 
=

>  <standard_value>  (164) 
196.0

>  <standard_units>  (164) 
nM

>  <target_pref_name>  (164) 
Androgen Receptor

>  <target_chembl_id>  (164) 
CHEMBL1871

>  <target_organism>  (164) 
Homo sapiens

>  <pchembl_median>  (164) 
5.82

$$$$
CHEMBL251552
     RDKit          2D

 21 22  0  0  0  0  0  0  0  0999 V2000
    4.5000    0.0000    0.0000 N   0  0  0  0  0  0  0  0  0  0  0  0
    3.0000    0.0000    0.0000 C   0  0  0  0  0  0  0  0  0  0  0  0
    1.5000    0.0000    0.0000 C   0  0  0  0  0  0  0  0  0  0  0  0
    0.7500   -1.2990    0.0000 C   0  0  0  0  0  0  0  0  0  0  0  0
   -0.7500   -1.2990    0.0000 C   0  0  0  0  0  0  0  0  0  0  0  0
   -1.5000    0.0000    0.0000 C   0  0  0  0  0  0  0  0  0  0  0  0
   -3.0000    0.0000    0.0000 O   0  0  0  0  0  0  0  0  0  0  0  0
   -3.7500    1.2990    0.0000 C   0  0  0  0  0  0  0  0  0  0  0  0
   -3.0000    2.5981    0.0000 C   0  0  0  0  0  0  0  0  0  0  0  0
   -3.7500    3.8971    0.0000 C   0  0  0  0  0  0  0  0  0  0  0  0
   -5.2500    3.8971    0.0000 C   0  0  0  0  0  0  0  0  0  0  0  0
   -6.0000    2.5981    0.0000 C   0  0  0  0  0  0  0  0  0  0  0  0
   -5.2500    1.2990    0.0000 C   0  0  0  0  0  0  0  0  0  0  0  0
   -6.0000    0.0000    0.0000 C   0  0  0  0  0  0  0  0  0  0  0  0
   -6.7500   -1.2990    0.0000 N   0  0  0  0  0  0  0  0  0  0  0  0
   -0.7500    1.2990    0.0000 C   0  0  0  0  0  0  0  0  0  0  0  0
    0.7500    1.2990    0.0000 C   0  0  0  0  0  0  0  0  0  0  0  0
    1.5000    2.5981    0.0000 C   0  0  0  0  0  0  0  0  0  0  0  0
    2.2500    3.8971    0.0000 F   0  0  0  0  0  0  0  0  0  0  0  0
    0.2010    3.3481    0.0000 F   0  0  0  0  0  0  0  0  0  0  0  0
    2.7990    1.8481    0.0000 F   0  0  0  0  0  0  0  0  0  0  0  0
  1  2  3  0
  2  3  1  0
  3  4  2  0
  4  5  1  0
  5  6  2  0
  6  7  1  0
  7  8  1  0
  8  9  1  0
  9 10  1  0
 10 11  1  0
 11 12  1  0
 12 13  1  0
 13 14  1  0
 14 15  3  0
  6 16  1  0
 16 17  2  0
 17 18  1  0
 18 19  1  0
 18 20  1  0
 18 21  1  0
 17  3  1  0
 13  8  1  0
M  END
>  <assay_chembl_id>  (165) 
CHEMBL923797

>  <assay_description>  (165) 
Antagonist activity at androgen receptor expressed in MDA-MB-453 cells assessed as inhibition of dihydrotestosterone-induced response in reporter gene assay

>  <parent_molecule_chembl_id>  (165) 
CHEMBL251552

>  <canonical_smiles>  (165) 
N#Cc1ccc(OC2CCCCC2C#N)cc1C(F)(F)F

>  <standard_type>  (165) 
IC50

>  <standard_relation>  (165) 
=

>  <standard_value>  (165) 
13.0

>  <standard_units>  (165) 
nM

>  <target_pref_name>  (165) 
Androgen Receptor

>  <target_chembl_id>  (165) 
CHEMBL1871

>  <target_organism>  (165) 
Homo sapiens

>  <pchembl_median>  (165) 
5.34

$$$$
CHEMBL510145
     RDKit          2D

 19 20  0  0  0  0  0  0  0  0999 V2000
    3.7500   -1.2990    0.0000 C   0  0  0  0  0  0  0  0  0  0  0  0
    3.0000    0.0000    0.0000 O   0  0  0  0  0  0  0  0  0  0  0  0
    1.5000    0.0000    0.0000 C   0  0  0  0  0  0  0  0  0  0  0  0
    0.7500   -1.2990    0.0000 C   0  0  0  0  0  0  0  0  0  0  0  0
   -0.7500   -1.2990    0.0000 C   0  0  0  0  0  0  0  0  0  0  0  0
   -1.5000   -2.5981    0.0000 S   0  0  0  0  0  0  0  0  0  0  0  0
   -3.0000   -2.5981    0.0000 C   0  0  0  0  0  0  0  0  0  0  0  0
   -3.7500   -1.2990    0.0000 C   0  0  0  0  0  0  0  0  0  0  0  0
   -5.2500   -1.2990    0.0000 C   0  0  0  0  0  0  0  0  0  0  0  0
   -6.0000   -2.5981    0.0000 C   0  0  0  0  0  0  0  0  0  0  0  0
   -5.2500   -3.8971    0.0000 C   0  0  0  0  0  0  0  0  0  0  0  0
   -3.7500   -3.8971    0.0000 C   0  0  0  0  0  0  0  0  0  0  0  0
   -3.0000   -5.1962    0.0000 O   0  0  0  0  0  0  0  0  0  0  0  0
   -3.7500   -6.4952    0.0000 C   0  0  0  0  0  0  0  0  0  0  0  0
   -1.5000    0.0000    0.0000 C   0  0  0  0  0  0  0  0  0  0  0  0
   -0.7500    1.2990    0.0000 C   0  0  0  0  0  0  0  0  0  0  0  0
    0.7500    1.2990    0.0000 C   0  0  0  0  0  0  0  0  0  0  0  0
    1.5000    2.5981    0.0000 C   0  0  0  0  0  0  0  0  0  0  0  0
    2.2500    3.8971    0.0000 N   0  0  0  0  0  0  0  0  0  0  0  0
  1  2  1  0
  2  3  1  0
  3  4  2  0
  4  5  1  0
  5  6  1  0
  6  7  1  0
  7  8  2  0
  8  9  1  0
  9 10  2  0
 10 11  1  0
 11 12  2  0
 12 13  1  0
 13 14  1  0
  5 15  2  0
 15 16  1  0
 16 17  2  0
 17 18  1  0
 18 19  3  0
 17  3  1  0
 12  7  1  0
M  END
>  <assay_chembl_id>  (166) 
CHEMBL964136

>  <assay_description>  (166) 
Displacement of [3H]DHT from human cloned androgen receptor expressed in Sf9 cells

>  <parent_molecule_chembl_id>  (166) 
CHEMBL510145

>  <canonical_smiles>  (166) 
COc1cc(Sc2ccccc2OC)ccc1C#N

>  <standard_type>  (166) 
IC50

>  <standard_relation>  (166) 
=

>  <standard_value>  (166) 
20.0

>  <standard_units>  (166) 
nM

>  <target_pref_name>  (166) 
Androgen Receptor

>  <target_chembl_id>  (166) 
CHEMBL1871

>  <target_organism>  (166) 
Homo sapiens

>  <pchembl_median>  (166) 
9.7

$$$$
CHEMBL453740
     RDKit          2D

 16 16  0  0  0  0  0  0  0  0999 V2000
    5.2500   -1.2990    0.0000 C   0  0  0  0  0  0  0  0  0  0  0  0
    3.7500   -1.2990    0.0000 C   0  0  0  0  0  0  0  0  0  0  0  0
    3.0000   -2.5981    0.0000 C   0  0  0  0  0  0  0  0  0  0  0  0
    3.0000    0.0000    0.0000 S   0  0  0  0  0  0  0  0  0  0  0  0
    1.5000    0.0000    0.0000 C   0  0  0  0  0  0  0  0  0  0  0  0
    0.7500   -1.2990    0.0000 C   0  0  0  0  0  0  0  0  0  0  0  0
   -0.7500   -1.2990    0.0000 C   0  0  0  0  0  0  0  0  0  0  0  0
   -1.5000    0.0000    0.0000 C   0  0  0  0  0  0  0  0  0  0  0  0
   -3.0000    0.0000    0.0000 C   0  0  0  0  0  0  0  0  0  0  0  0
   -4.5000    0.0000    0.0000 N   0  0  0  0  0  0  0  0  0  0  0  0
   -0.7500    1.2990    0.0000 C   0  0  0  0  0  0  0  0  0  0  0  0
   -1.5000    2.5981    0.0000 C   0  0  0  0  0  0  0  0  0  0  0  0
   -2.2500    3.8971    0.0000 F   0  0  0  0  0  0  0  0  0  0  0  0
   -0.2010    3.3481    0.0000 F   0  0  0  0  0  0  0  0  0  0  0  0
   -2.7990    1.8481    0.0000 F   0  0  0  0  0  0  0  0  0  0  0  0
    0.7500    1.2990    0.0000 C   0  0  0  0  0  0  0  0  0  0  0  0
  1  2  1  0
  2  3  1  0
  2  4  1  0
  4  5  1  0
  5  6  2  0
  6  7  1  0
  7  8  2  0
  8  9  1  0
  9 10  3  0
  8 11  1  0
 11 12  1  0
 12 13  1  0
 12 14  1  0
 12 15  1  0
 11 16  2  0
 16  5  1  0
M  END
>  <assay_chembl_id>  (167) 
CHEMBL964136

>  <assay_description>  (167) 
Displacement of [3H]DHT from human cloned androgen receptor expressed in Sf9 cells

>  <parent_molecule_chembl_id>  (167) 
CHEMBL453740

>  <canonical_smiles>  (167) 
CC(C)Sc1ccc(C#N)c(C(F)(F)F)c1

>  <standard_type>  (167) 
IC50

>  <standard_relation>  (167) 
=

>  <standard_value>  (167) 
20.0

>  <standard_units>  (167) 
nM

>  <target_pref_name>  (167) 
Androgen Receptor

>  <target_chembl_id>  (167) 
CHEMBL1871

>  <target_organism>  (167) 
Homo sapiens

>  <pchembl_median>  (167) 
4.92

$$$$
CHEMBL491493
     RDKit          2D

 18 19  0  0  0  0  0  0  0  0999 V2000
    3.7500   -1.2990    0.0000 C   0  0  0  0  0  0  0  0  0  0  0  0
    3.0000    0.0000    0.0000 O   0  0  0  0  0  0  0  0  0  0  0  0
    1.5000    0.0000    0.0000 C   0  0  0  0  0  0  0  0  0  0  0  0
    0.7500   -1.2990    0.0000 C   0  0  0  0  0  0  0  0  0  0  0  0
   -0.7500   -1.2990    0.0000 C   0  0  0  0  0  0  0  0  0  0  0  0
   -1.5000   -2.5981    0.0000 O   0  0  0  0  0  0  0  0  0  0  0  0
   -3.0000   -2.5981    0.0000 C   0  0  0  0  0  0  0  0  0  0  0  0
   -3.7500   -1.2990    0.0000 C   0  0  0  0  0  0  0  0  0  0  0  0
   -5.2500   -1.2990    0.0000 C   0  0  0  0  0  0  0  0  0  0  0  0
   -6.0000   -2.5981    0.0000 C   0  0  0  0  0  0  0  0  0  0  0  0
   -5.2500   -3.8971    0.0000 C   0  0  0  0  0  0  0  0  0  0  0  0
   -3.7500   -3.8971    0.0000 C   0  0  0  0  0  0  0  0  0  0  0  0
   -3.0000   -5.1962    0.0000 C   0  0  0  0  0  0  0  0  0  0  0  0
   -1.5000    0.0000    0.0000 C   0  0  0  0  0  0  0  0  0  0  0  0
   -0.7500    1.2990    0.0000 C   0  0  0  0  0  0  0  0  0  0  0  0
    0.7500    1.2990    0.0000 C   0  0  0  0  0  0  0  0  0  0  0  0
    1.5000    2.5981    0.0000 C   0  0  0  0  0  0  0  0  0  0  0  0
    2.2500    3.8971    0.0000 N   0  0  0  0  0  0  0  0  0  0  0  0
  1  2  1  0
  2  3  1  0
  3  4  2  0
  4  5  1  0
  5  6  1  0
  6  7  1  0
  7  8  2  0
  8  9  1  0
  9 10  2  0
 10 11  1  0
 11 12  2  0
 12 13  1  0
  5 14  2  0
 14 15  1  0
 15 16  2  0
 16 17  1  0
 17 18  3  0
 16  3  1  0
 12  7  1  0
M  END
>  <assay_chembl_id>  (168) 
CHEMBL964136

>  <assay_description>  (168) 
Displacement of [3H]DHT from human cloned androgen receptor expressed in Sf9 cells

>  <parent_molecule_chembl_id>  (168) 
CHEMBL491493

>  <canonical_smiles>  (168) 
COc1cc(Oc2ccccc2C)ccc1C#N

>  <standard_type>  (168) 
IC50

>  <standard_relation>  (168) 
=

>  <standard_value>  (168) 
24.0

>  <standard_units>  (168) 
nM

>  <target_pref_name>  (168) 
Androgen Receptor

>  <target_chembl_id>  (168) 
CHEMBL1871

>  <target_organism>  (168) 
Homo sapiens

>  <pchembl_median>  (168) 
5.13

$$$$
CHEMBL453623
     RDKit          2D

 17 18  0  0  0  0  0  0  0  0999 V2000
    4.5000    0.0000    0.0000 N   0  0  0  0  0  0  0  0  0  0  0  0
    3.0000    0.0000    0.0000 C   0  0  0  0  0  0  0  0  0  0  0  0
    1.5000    0.0000    0.0000 C   0  0  0  0  0  0  0  0  0  0  0  0
    0.7500   -1.2990    0.0000 C   0  0  0  0  0  0  0  0  0  0  0  0
   -0.7500   -1.2990    0.0000 C   0  0  0  0  0  0  0  0  0  0  0  0
   -1.5000    0.0000    0.0000 C   0  0  0  0  0  0  0  0  0  0  0  0
   -3.0000    0.0000    0.0000 S   0  0  0  0  0  0  0  0  0  0  0  0
   -3.7500    1.2990    0.0000 C   0  0  0  0  0  0  0  0  0  0  0  0
   -5.2500    1.2990    0.0000 C   0  0  0  0  0  0  0  0  0  0  0  0
   -6.5490    0.5490    0.0000 C   0  0  0  0  0  0  0  0  0  0  0  0
   -6.5490    2.0490    0.0000 C   0  0  0  0  0  0  0  0  0  0  0  0
   -0.7500    1.2990    0.0000 C   0  0  0  0  0  0  0  0  0  0  0  0
    0.7500    1.2990    0.0000 C   0  0  0  0  0  0  0  0  0  0  0  0
    1.5000    2.5981    0.0000 C   0  0  0  0  0  0  0  0  0  0  0  0
    2.2500    3.8971    0.0000 F   0  0  0  0  0  0  0  0  0  0  0  0
    0.2010    3.3481    0.0000 F   0  0  0  0  0  0  0  0  0  0  0  0
    2.7990    1.8481    0.0000 F   0  0  0  0  0  0  0  0  0  0  0  0
  1  2  3  0
  2  3  1  0
  3  4  2  0
  4  5  1  0
  5  6  2  0
  6  7  1  0
  7  8  1  0
  8  9  1  0
  9 10  1  0
 10 11  1  0
  6 12  1  0
 12 13  2  0
 13 14  1  0
 14 15  1  0
 14 16  1  0
 14 17  1  0
 13  3  1  0
 11  9  1  0
M  END
>  <assay_chembl_id>  (169) 
CHEMBL964136

>  <assay_description>  (169) 
Displacement of [3H]DHT from human cloned androgen receptor expressed in Sf9 cells

>  <parent_molecule_chembl_id>  (169) 
CHEMBL453623

>  <canonical_smiles>  (169) 
N#Cc1ccc(SCC2CC2)cc1C(F)(F)F

>  <standard_type>  (169) 
IC50

>  <standard_relation>  (169) 
=

>  <standard_value>  (169) 
35.0

>  <standard_units>  (169) 
nM

>  <target_pref_name>  (169) 
Androgen Receptor

>  <target_chembl_id>  (169) 
CHEMBL1871

>  <target_organism>  (169) 
Homo sapiens

>  <pchembl_median>  (169) 
5.48

$$$$
CHEMBL462022
     RDKit          2D

 20 21  0  0  0  0  0  0  0  0999 V2000
    3.7500   -1.2990    0.0000 C   0  0  0  0  0  0  0  0  0  0  0  0
    3.0000    0.0000    0.0000 O   0  0  0  0  0  0  0  0  0  0  0  0
    1.5000    0.0000    0.0000 C   0  0  0  0  0  0  0  0  0  0  0  0
    0.7500   -1.2990    0.0000 C   0  0  0  0  0  0  0  0  0  0  0  0
   -0.7500   -1.2990    0.0000 C   0  0  0  0  0  0  0  0  0  0  0  0
   -1.5000   -2.5981    0.0000 S   0  0  0  0  0  0  0  0  0  0  0  0
   -3.0000   -2.5981    0.0000 C   0  0  0  0  0  0  0  0  0  0  0  0
   -3.7500   -1.2990    0.0000 C   0  0  0  0  0  0  0  0  0  0  0  0
   -3.0000    0.0000    0.0000 C   0  0  0  0  0  0  0  0  0  0  0  0
   -5.2500   -1.2990    0.0000 C   0  0  0  0  0  0  0  0  0  0  0  0
   -6.0000   -2.5981    0.0000 C   0  0  0  0  0  0  0  0  0  0  0  0
   -7.5000   -2.5981    0.0000 C   0  0  0  0  0  0  0  0  0  0  0  0
   -5.2500   -3.8971    0.0000 C   0  0  0  0  0  0  0  0  0  0  0  0
   -3.7500   -3.8971    0.0000 C   0  0  0  0  0  0  0  0  0  0  0  0
   -3.0000   -5.1962    0.0000 C   0  0  0  0  0  0  0  0  0  0  0  0
   -1.5000    0.0000    0.0000 C   0  0  0  0  0  0  0  0  0  0  0  0
   -0.7500    1.2990    0.0000 C   0  0  0  0  0  0  0  0  0  0  0  0
    0.7500    1.2990    0.0000 C   0  0  0  0  0  0  0  0  0  0  0  0
    1.5000    2.5981    0.0000 C   0  0  0  0  0  0  0  0  0  0  0  0
    2.2500    3.8971    0.0000 N   0  0  0  0  0  0  0  0  0  0  0  0
  1  2  1  0
  2  3  1  0
  3  4  2  0
  4  5  1  0
  5  6  1  0
  6  7  1  0
  7  8  2  0
  8  9  1  0
  8 10  1  0
 10 11  2  0
 11 12  1  0
 11 13  1  0
 13 14  2  0
 14 15  1  0
  5 16  2  0
 16 17  1  0
 17 18  2  0
 18 19  1  0
 19 20  3  0
 18  3  1  0
 14  7  1  0
M  END
>  <assay_chembl_id>  (170) 
CHEMBL964136

>  <assay_description>  (170) 
Displacement of [3H]DHT from human cloned androgen receptor expressed in Sf9 cells

>  <parent_molecule_chembl_id>  (170) 
CHEMBL462022

>  <canonical_smiles>  (170) 
COc1cc(Sc2c(C)cc(C)cc2C)ccc1C#N

>  <standard_type>  (170) 
IC50

>  <standard_relation>  (170) 
=

>  <standard_value>  (170) 
39.0

>  <standard_units>  (170) 
nM

>  <target_pref_name>  (170) 
Androgen Receptor

>  <target_chembl_id>  (170) 
CHEMBL1871

>  <target_organism>  (170) 
Homo sapiens

>  <pchembl_median>  (170) 
5.57

$$$$
CHEMBL443970
     RDKit          2D

 14 14  0  0  0  0  0  0  0  0999 V2000
    6.0000   -2.5981    0.0000 C   0  0  0  0  0  0  0  0  0  0  0  0
    5.2500   -1.2990    0.0000 C   0  0  0  0  0  0  0  0  0  0  0  0
    3.7500   -1.2990    0.0000 C   0  0  0  0  0  0  0  0  0  0  0  0
    3.0000    0.0000    0.0000 S   0  0  0  0  0  0  0  0  0  0  0  0
    1.5000    0.0000    0.0000 C   0  0  0  0  0  0  0  0  0  0  0  0
    0.7500   -1.2990    0.0000 C   0  0  0  0  0  0  0  0  0  0  0  0
   -0.7500   -1.2990    0.0000 C   0  0  0  0  0  0  0  0  0  0  0  0
   -1.5000    0.0000    0.0000 C   0  0  0  0  0  0  0  0  0  0  0  0
   -3.0000    0.0000    0.0000 C   0  0  0  0  0  0  0  0  0  0  0  0
   -4.5000    0.0000    0.0000 N   0  0  0  0  0  0  0  0  0  0  0  0
   -0.7500    1.2990    0.0000 C   0  0  0  0  0  0  0  0  0  0  0  0
   -1.5000    2.5981    0.0000 O   0  0  0  0  0  0  0  0  0  0  0  0
   -0.7500    3.8971    0.0000 C   0  0  0  0  0  0  0  0  0  0  0  0
    0.7500    1.2990    0.0000 C   0  0  0  0  0  0  0  0  0  0  0  0
  1  2  1  0
  2  3  1  0
  3  4  1  0
  4  5  1  0
  5  6  2  0
  6  7  1  0
  7  8  2  0
  8  9  1  0
  9 10  3  0
  8 11  1  0
 11 12  1  0
 12 13  1  0
 11 14  2  0
 14  5  1  0
M  END
>  <assay_chembl_id>  (171) 
CHEMBL964136

>  <assay_description>  (171) 
Displacement of [3H]DHT from human cloned androgen receptor expressed in Sf9 cells

>  <parent_molecule_chembl_id>  (171) 
CHEMBL443970

>  <canonical_smiles>  (171) 
CCCSc1ccc(C#N)c(OC)c1

>  <standard_type>  (171) 
IC50

>  <standard_relation>  (171) 
=

>  <standard_value>  (171) 
40.0

>  <standard_units>  (171) 
nM

>  <target_pref_name>  (171) 
Androgen Receptor

>  <target_chembl_id>  (171) 
CHEMBL1871

>  <target_organism>  (171) 
Homo sapiens

>  <pchembl_median>  (171) 
5.3

$$$$
CHEMBL490956
     RDKit          2D

 17 18  0  0  0  0  0  0  0  0999 V2000
    3.0000    0.0000    0.0000 C   0  0  0  0  0  0  0  0  0  0  0  0
    1.5000    0.0000    0.0000 C   0  0  0  0  0  0  0  0  0  0  0  0
    0.7500   -1.2990    0.0000 C   0  0  0  0  0  0  0  0  0  0  0  0
   -0.7500   -1.2990    0.0000 C   0  0  0  0  0  0  0  0  0  0  0  0
   -1.5000    0.0000    0.0000 C   0  0  0  0  0  0  0  0  0  0  0  0
   -0.7500    1.2990    0.0000 C   0  0  0  0  0  0  0  0  0  0  0  0
    0.7500    1.2990    0.0000 C   0  0  0  0  0  0  0  0  0  0  0  0
    1.5000    2.5981    0.0000 S   0  0  0  0  0  0  0  0  0  0  0  0
    0.7500    3.8971    0.0000 C   0  0  0  0  0  0  0  0  0  0  0  0
    1.5000    5.1962    0.0000 C   0  0  0  0  0  0  0  0  0  0  0  0
    0.7500    6.4952    0.0000 C   0  0  0  0  0  0  0  0  0  0  0  0
   -0.7500    6.4952    0.0000 C   0  0  0  0  0  0  0  0  0  0  0  0
   -1.5000    7.7942    0.0000 C   0  0  0  0  0  0  0  0  0  0  0  0
   -2.2500    9.0933    0.0000 N   0  0  0  0  0  0  0  0  0  0  0  0
   -1.5000    5.1962    0.0000 C   0  0  0  0  0  0  0  0  0  0  0  0
   -0.7500    3.8971    0.0000 C   0  0  0  0  0  0  0  0  0  0  0  0
   -1.5000    2.5981    0.0000 Cl  0  0  0  0  0  0  0  0  0  0  0  0
  1  2  1  0
  2  3  2  0
  3  4  1  0
  4  5  2  0
  5  6  1  0
  6  7  2  0
  7  8  1  0
  8  9  1  0
  9 10  2  0
 10 11  1  0
 11 12  2  0
 12 13  1  0
 13 14  3  0
 12 15  1  0
 15 16  2  0
 16 17  1  0
  7  2  1  0
 16  9  1  0
M  END
>  <assay_chembl_id>  (172) 
CHEMBL964136

>  <assay_description>  (172) 
Displacement of [3H]DHT from human cloned androgen receptor expressed in Sf9 cells

>  <parent_molecule_chembl_id>  (172) 
CHEMBL490956

>  <canonical_smiles>  (172) 
Cc1ccccc1Sc1ccc(C#N)cc1Cl

>  <standard_type>  (172) 
IC50

>  <standard_relation>  (172) 
=

>  <standard_value>  (172) 
43.0

>  <standard_units>  (172) 
nM

>  <target_pref_name>  (172) 
Androgen Receptor

>  <target_chembl_id>  (172) 
CHEMBL1871

>  <target_organism>  (172) 
Homo sapiens

>  <pchembl_median>  (172) 
5.4

$$$$
CHEMBL462665
     RDKit          2D

 17 17  0  0  0  0  0  0  0  0999 V2000
    7.5000   -2.5981    0.0000 C   0  0  0  0  0  0  0  0  0  0  0  0
    6.0000   -2.5981    0.0000 C   0  0  0  0  0  0  0  0  0  0  0  0
    5.2500   -1.2990    0.0000 C   0  0  0  0  0  0  0  0  0  0  0  0
    3.7500   -1.2990    0.0000 C   0  0  0  0  0  0  0  0  0  0  0  0
    3.0000    0.0000    0.0000 S   0  0  0  0  0  0  0  0  0  0  0  0
    1.5000    0.0000    0.0000 C   0  0  0  0  0  0  0  0  0  0  0  0
    0.7500   -1.2990    0.0000 C   0  0  0  0  0  0  0  0  0  0  0  0
   -0.7500   -1.2990    0.0000 C   0  0  0  0  0  0  0  0  0  0  0  0
   -1.5000    0.0000    0.0000 C   0  0  0  0  0  0  0  0  0  0  0  0
   -3.0000    0.0000    0.0000 C   0  0  0  0  0  0  0  0  0  0  0  0
   -4.5000    0.0000    0.0000 N   0  0  0  0  0  0  0  0  0  0  0  0
   -0.7500    1.2990    0.0000 C   0  0  0  0  0  0  0  0  0  0  0  0
   -1.5000    2.5981    0.0000 C   0  0  0  0  0  0  0  0  0  0  0  0
   -2.2500    3.8971    0.0000 F   0  0  0  0  0  0  0  0  0  0  0  0
   -0.2010    3.3481    0.0000 F   0  0  0  0  0  0  0  0  0  0  0  0
   -2.7990    1.8481    0.0000 F   0  0  0  0  0  0  0  0  0  0  0  0
    0.7500    1.2990    0.0000 C   0  0  0  0  0  0  0  0  0  0  0  0
  1  2  1  0
  2  3  1  0
  3  4  1  0
  4  5  1  0
  5  6  1  0
  6  7  2  0
  7  8  1  0
  8  9  2  0
  9 10  1  0
 10 11  3  0
  9 12  1  0
 12 13  1  0
 13 14  1  0
 13 15  1  0
 13 16  1  0
 12 17  2  0
 17  6  1  0
M  END
>  <assay_chembl_id>  (173) 
CHEMBL964136

>  <assay_description>  (173) 
Displacement of [3H]DHT from human cloned androgen receptor expressed in Sf9 cells

>  <parent_molecule_chembl_id>  (173) 
CHEMBL462665

>  <canonical_smiles>  (173) 
CCCCSc1ccc(C#N)c(C(F)(F)F)c1

>  <standard_type>  (173) 
IC50

>  <standard_relation>  (173) 
=

>  <standard_value>  (173) 
49.0

>  <standard_units>  (173) 
nM

>  <target_pref_name>  (173) 
Androgen Receptor

>  <target_chembl_id>  (173) 
CHEMBL1871

>  <target_organism>  (173) 
Homo sapiens

>  <pchembl_median>  (173) 
5.27

$$$$
CHEMBL490957
     RDKit          2D

 18 19  0  0  0  0  0  0  0  0999 V2000
    3.7500   -1.2990    0.0000 C   0  0  0  0  0  0  0  0  0  0  0  0
    3.0000    0.0000    0.0000 O   0  0  0  0  0  0  0  0  0  0  0  0
    1.5000    0.0000    0.0000 C   0  0  0  0  0  0  0  0  0  0  0  0
    0.7500   -1.2990    0.0000 C   0  0  0  0  0  0  0  0  0  0  0  0
   -0.7500   -1.2990    0.0000 C   0  0  0  0  0  0  0  0  0  0  0  0
   -1.5000   -2.5981    0.0000 O   0  0  0  0  0  0  0  0  0  0  0  0
   -3.0000   -2.5981    0.0000 C   0  0  0  0  0  0  0  0  0  0  0  0
   -3.7500   -1.2990    0.0000 C   0  0  0  0  0  0  0  0  0  0  0  0
   -5.2500   -1.2990    0.0000 C   0  0  0  0  0  0  0  0  0  0  0  0
   -6.0000   -2.5981    0.0000 C   0  0  0  0  0  0  0  0  0  0  0  0
   -5.2500   -3.8971    0.0000 C   0  0  0  0  0  0  0  0  0  0  0  0
   -6.0000   -5.1962    0.0000 C   0  0  0  0  0  0  0  0  0  0  0  0
   -3.7500   -3.8971    0.0000 C   0  0  0  0  0  0  0  0  0  0  0  0
   -1.5000    0.0000    0.0000 C   0  0  0  0  0  0  0  0  0  0  0  0
   -0.7500    1.2990    0.0000 C   0  0  0  0  0  0  0  0  0  0  0  0
    0.7500    1.2990    0.0000 C   0  0  0  0  0  0  0  0  0  0  0  0
    1.5000    2.5981    0.0000 C   0  0  0  0  0  0  0  0  0  0  0  0
    2.2500    3.8971    0.0000 N   0  0  0  0  0  0  0  0  0  0  0  0
  1  2  1  0
  2  3  1  0
  3  4  2  0
  4  5  1  0
  5  6  1  0
  6  7  1  0
  7  8  2  0
  8  9  1  0
  9 10  2  0
 10 11  1  0
 11 12  1  0
 11 13  2  0
  5 14  2  0
 14 15  1  0
 15 16  2  0
 16 17  1  0
 17 18  3  0
 16  3  1  0
 13  7  1  0
M  END
>  <assay_chembl_id>  (174) 
CHEMBL964136

>  <assay_description>  (174) 
Displacement of [3H]DHT from human cloned androgen receptor expressed in Sf9 cells

>  <parent_molecule_chembl_id>  (174) 
CHEMBL490957

>  <canonical_smiles>  (174) 
COc1cc(Oc2cccc(C)c2)ccc1C#N

>  <standard_type>  (174) 
IC50

>  <standard_relation>  (174) 
=

>  <standard_value>  (174) 
57.0

>  <standard_units>  (174) 
nM

>  <target_pref_name>  (174) 
Androgen Receptor

>  <target_chembl_id>  (174) 
CHEMBL1871

>  <target_organism>  (174) 
Homo sapiens

>  <pchembl_median>  (174) 
4.92

$$$$
CHEMBL453624
     RDKit          2D

 18 19  0  0  0  0  0  0  0  0999 V2000
    4.5000    0.0000    0.0000 N   0  0  0  0  0  0  0  0  0  0  0  0
    3.0000    0.0000    0.0000 C   0  0  0  0  0  0  0  0  0  0  0  0
    1.5000    0.0000    0.0000 C   0  0  0  0  0  0  0  0  0  0  0  0
    0.7500   -1.2990    0.0000 C   0  0  0  0  0  0  0  0  0  0  0  0
   -0.7500   -1.2990    0.0000 C   0  0  0  0  0  0  0  0  0  0  0  0
   -1.5000    0.0000    0.0000 C   0  0  0  0  0  0  0  0  0  0  0  0
   -3.0000    0.0000    0.0000 S   0  0  0  0  0  0  0  0  0  0  0  0
   -3.7500    1.2990    0.0000 C   0  0  0  0  0  0  0  0  0  0  0  0
   -5.2500    1.2990    0.0000 C   0  0  0  0  0  0  0  0  0  0  0  0
   -6.3107    2.3597    0.0000 C   0  0  0  0  0  0  0  0  0  0  0  0
   -7.3713    1.2990    0.0000 C   0  0  0  0  0  0  0  0  0  0  0  0
   -6.3107    0.2384    0.0000 C   0  0  0  0  0  0  0  0  0  0  0  0
   -0.7500    1.2990    0.0000 C   0  0  0  0  0  0  0  0  0  0  0  0
    0.7500    1.2990    0.0000 C   0  0  0  0  0  0  0  0  0  0  0  0
    1.5000    2.5981    0.0000 C   0  0  0  0  0  0  0  0  0  0  0  0
    2.2500    3.8971    0.0000 F   0  0  0  0  0  0  0  0  0  0  0  0
    0.2010    3.3481    0.0000 F   0  0  0  0  0  0  0  0  0  0  0  0
    2.7990    1.8481    0.0000 F   0  0  0  0  0  0  0  0  0  0  0  0
  1  2  3  0
  2  3  1  0
  3  4  2  0
  4  5  1  0
  5  6  2  0
  6  7  1  0
  7  8  1  0
  8  9  1  0
  9 10  1  0
 10 11  1  0
 11 12  1  0
  6 13  1  0
 13 14  2  0
 14 15  1  0
 15 16  1  0
 15 17  1  0
 15 18  1  0
 14  3  1  0
 12  9  1  0
M  END
>  <assay_chembl_id>  (175) 
CHEMBL964136

>  <assay_description>  (175) 
Displacement of [3H]DHT from human cloned androgen receptor expressed in Sf9 cells

>  <parent_molecule_chembl_id>  (175) 
CHEMBL453624

>  <canonical_smiles>  (175) 
N#Cc1ccc(SCC2CCC2)cc1C(F)(F)F

>  <standard_type>  (175) 
IC50

>  <standard_relation>  (175) 
=

>  <standard_value>  (175) 
63.0

>  <standard_units>  (175) 
nM

>  <target_pref_name>  (175) 
Androgen Receptor

>  <target_chembl_id>  (175) 
CHEMBL1871

>  <target_organism>  (175) 
Homo sapiens

>  <pchembl_median>  (175) 
4.96

$$$$
CHEMBL501649
     RDKit          2D

 18 19  0  0  0  0  0  0  0  0999 V2000
    3.7500   -1.2990    0.0000 C   0  0  0  0  0  0  0  0  0  0  0  0
    3.0000    0.0000    0.0000 O   0  0  0  0  0  0  0  0  0  0  0  0
    1.5000    0.0000    0.0000 C   0  0  0  0  0  0  0  0  0  0  0  0
    0.7500   -1.2990    0.0000 C   0  0  0  0  0  0  0  0  0  0  0  0
   -0.7500   -1.2990    0.0000 C   0  0  0  0  0  0  0  0  0  0  0  0
   -1.5000   -2.5981    0.0000 O   0  0  0  0  0  0  0  0  0  0  0  0
   -3.0000   -2.5981    0.0000 C   0  0  0  0  0  0  0  0  0  0  0  0
   -3.7500   -1.2990    0.0000 C   0  0  0  0  0  0  0  0  0  0  0  0
   -5.2500   -1.2990    0.0000 C   0  0  0  0  0  0  0  0  0  0  0  0
   -6.0000   -2.5981    0.0000 C   0  0  0  0  0  0  0  0  0  0  0  0
   -7.5000   -2.5981    0.0000 C   0  0  0  0  0  0  0  0  0  0  0  0
   -5.2500   -3.8971    0.0000 C   0  0  0  0  0  0  0  0  0  0  0  0
   -3.7500   -3.8971    0.0000 C   0  0  0  0  0  0  0  0  0  0  0  0
   -1.5000    0.0000    0.0000 C   0  0  0  0  0  0  0  0  0  0  0  0
   -0.7500    1.2990    0.0000 C   0  0  0  0  0  0  0  0  0  0  0  0
    0.7500    1.2990    0.0000 C   0  0  0  0  0  0  0  0  0  0  0  0
    1.5000    2.5981    0.0000 C   0  0  0  0  0  0  0  0  0  0  0  0
    2.2500    3.8971    0.0000 N   0  0  0  0  0  0  0  0  0  0  0  0
  1  2  1  0
  2  3  1  0
  3  4  2  0
  4  5  1  0
  5  6  1  0
  6  7  1  0
  7  8  2  0
  8  9  1  0
  9 10  2  0
 10 11  1  0
 10 12  1  0
 12 13  2  0
  5 14  2  0
 14 15  1  0
 15 16  2  0
 16 17  1  0
 17 18  3  0
 16  3  1  0
 13  7  1  0
M  END
>  <assay_chembl_id>  (176) 
CHEMBL964136

>  <assay_description>  (176) 
Displacement of [3H]DHT from human cloned androgen receptor expressed in Sf9 cells

>  <parent_molecule_chembl_id>  (176) 
CHEMBL501649

>  <canonical_smiles>  (176) 
COc1cc(Oc2ccc(C)cc2)ccc1C#N

>  <standard_type>  (176) 
IC50

>  <standard_relation>  (176) 
=

>  <standard_value>  (176) 
200.0

>  <standard_units>  (176) 
nM

>  <target_pref_name>  (176) 
Androgen Receptor

>  <target_chembl_id>  (176) 
CHEMBL1871

>  <target_organism>  (176) 
Homo sapiens

>  <pchembl_median>  (176) 
4.64

$$$$
CHEMBL448978
     RDKit          2D

 17 17  0  0  0  0  0  0  0  0999 V2000
    5.0490   -0.5490    0.0000 C   0  0  0  0  0  0  0  0  0  0  0  0
    3.7500   -1.2990    0.0000 C   0  0  0  0  0  0  0  0  0  0  0  0
    2.4510   -2.0490    0.0000 C   0  0  0  0  0  0  0  0  0  0  0  0
    4.5000   -2.5981    0.0000 C   0  0  0  0  0  0  0  0  0  0  0  0
    3.0000    0.0000    0.0000 S   0  0  0  0  0  0  0  0  0  0  0  0
    1.5000    0.0000    0.0000 C   0  0  0  0  0  0  0  0  0  0  0  0
    0.7500   -1.2990    0.0000 C   0  0  0  0  0  0  0  0  0  0  0  0
   -0.7500   -1.2990    0.0000 C   0  0  0  0  0  0  0  0  0  0  0  0
   -1.5000    0.0000    0.0000 C   0  0  0  0  0  0  0  0  0  0  0  0
   -3.0000    0.0000    0.0000 C   0  0  0  0  0  0  0  0  0  0  0  0
   -4.5000    0.0000    0.0000 N   0  0  0  0  0  0  0  0  0  0  0  0
   -0.7500    1.2990    0.0000 C   0  0  0  0  0  0  0  0  0  0  0  0
   -1.5000    2.5981    0.0000 C   0  0  0  0  0  0  0  0  0  0  0  0
   -2.2500    3.8971    0.0000 F   0  0  0  0  0  0  0  0  0  0  0  0
   -0.2010    3.3481    0.0000 F   0  0  0  0  0  0  0  0  0  0  0  0
   -2.7990    1.8481    0.0000 F   0  0  0  0  0  0  0  0  0  0  0  0
    0.7500    1.2990    0.0000 C   0  0  0  0  0  0  0  0  0  0  0  0
  1  2  1  0
  2  3  1  0
  2  4  1  0
  2  5  1  0
  5  6  1  0
  6  7  2  0
  7  8  1  0
  8  9  2  0
  9 10  1  0
 10 11  3  0
  9 12  1  0
 12 13  1  0
 13 14  1  0
 13 15  1  0
 13 16  1  0
 12 17  2  0
 17  6  1  0
M  END
>  <assay_chembl_id>  (177) 
CHEMBL964136

>  <assay_description>  (177) 
Displacement of [3H]DHT from human cloned androgen receptor expressed in Sf9 cells

>  <parent_molecule_chembl_id>  (177) 
CHEMBL448978

>  <canonical_smiles>  (177) 
CC(C)(C)Sc1ccc(C#N)c(C(F)(F)F)c1

>  <standard_type>  (177) 
IC50

>  <standard_relation>  (177) 
=

>  <standard_value>  (177) 
315.0

>  <standard_units>  (177) 
nM

>  <target_pref_name>  (177) 
Androgen Receptor

>  <target_chembl_id>  (177) 
CHEMBL1871

>  <target_organism>  (177) 
Homo sapiens

>  <pchembl_median>  (177) 
4.62

$$$$
CHEMBL447604
     RDKit          2D

 18 19  0  0  0  0  0  0  0  0999 V2000
    3.7500   -1.2990    0.0000 C   0  0  0  0  0  0  0  0  0  0  0  0
    3.0000    0.0000    0.0000 O   0  0  0  0  0  0  0  0  0  0  0  0
    1.5000    0.0000    0.0000 C   0  0  0  0  0  0  0  0  0  0  0  0
    0.7500   -1.2990    0.0000 C   0  0  0  0  0  0  0  0  0  0  0  0
   -0.7500   -1.2990    0.0000 C   0  0  0  0  0  0  0  0  0  0  0  0
   -1.5000   -2.5981    0.0000 C   0  0  0  0  0  0  0  0  0  0  0  0
   -2.2500   -3.8971    0.0000 N   0  0  0  0  0  0  0  0  0  0  0  0
   -1.5000    0.0000    0.0000 C   0  0  0  0  0  0  0  0  0  0  0  0
   -0.7500    1.2990    0.0000 C   0  0  0  0  0  0  0  0  0  0  0  0
    0.7500    1.2990    0.0000 C   0  0  0  0  0  0  0  0  0  0  0  0
    1.5000    2.5981    0.0000 O   0  0  0  0  0  0  0  0  0  0  0  0
    0.7500    3.8971    0.0000 C   0  0  0  0  0  0  0  0  0  0  0  0
    1.5000    5.1962    0.0000 C   0  0  0  0  0  0  0  0  0  0  0  0
    0.7500    6.4952    0.0000 C   0  0  0  0  0  0  0  0  0  0  0  0
   -0.7500    6.4952    0.0000 C   0  0  0  0  0  0  0  0  0  0  0  0
   -1.5000    5.1962    0.0000 C   0  0  0  0  0  0  0  0  0  0  0  0
   -3.0000    5.1962    0.0000 C   0  0  0  0  0  0  0  0  0  0  0  0
   -0.7500    3.8971    0.0000 C   0  0  0  0  0  0  0  0  0  0  0  0
  1  2  1  0
  2  3  1  0
  3  4  2  0
  4  5  1  0
  5  6  1  0
  6  7  3  0
  5  8  2  0
  8  9  1  0
  9 10  2  0
 10 11  1  0
 11 12  1  0
 12 13  2  0
 13 14  1  0
 14 15  2  0
 15 16  1  0
 16 17  1  0
 16 18  2  0
 10  3  1  0
 18 12  1  0
M  END
>  <assay_chembl_id>  (178) 
CHEMBL964136

>  <assay_description>  (178) 
Displacement of [3H]DHT from human cloned androgen receptor expressed in Sf9 cells

>  <parent_molecule_chembl_id>  (178) 
CHEMBL447604

>  <canonical_smiles>  (178) 
COc1cc(C#N)ccc1Oc1cccc(C)c1

>  <standard_type>  (178) 
IC50

>  <standard_relation>  (178) 
=

>  <standard_value>  (178) 
353.0

>  <standard_units>  (178) 
nM

>  <target_pref_name>  (178) 
Androgen Receptor

>  <target_chembl_id>  (178) 
CHEMBL1871

>  <target_organism>  (178) 
Homo sapiens

>  <pchembl_median>  (178) 
4.51

$$$$
CHEMBL462027
     RDKit          2D

 21 22  0  0  0  0  0  0  0  0999 V2000
    3.0000    0.0000    0.0000 C   0  0  0  0  0  0  0  0  0  0  0  0
    1.5000    0.0000    0.0000 C   0  0  0  0  0  0  0  0  0  0  0  0
    0.7500   -1.2990    0.0000 C   0  0  0  0  0  0  0  0  0  0  0  0
   -0.7500   -1.2990    0.0000 C   0  0  0  0  0  0  0  0  0  0  0  0
   -1.5000    0.0000    0.0000 C   0  0  0  0  0  0  0  0  0  0  0  0
   -0.7500    1.2990    0.0000 C   0  0  0  0  0  0  0  0  0  0  0  0
   -1.5000    2.5981    0.0000 C   0  0  0  0  0  0  0  0  0  0  0  0
    0.7500    1.2990    0.0000 C   0  0  0  0  0  0  0  0  0  0  0  0
    1.5000    2.5981    0.0000 S   0  0  0  0  0  0  0  0  0  0  0  0
    3.0000    2.5981    0.0000 C   0  0  0  0  0  0  0  0  0  0  0  0
    3.7500    1.2990    0.0000 C   0  0  0  0  0  0  0  0  0  0  0  0
    5.2500    1.2990    0.0000 C   0  0  0  0  0  0  0  0  0  0  0  0
    6.0000    2.5981    0.0000 C   0  0  0  0  0  0  0  0  0  0  0  0
    7.5000    2.5981    0.0000 C   0  0  0  0  0  0  0  0  0  0  0  0
    9.0000    2.5981    0.0000 N   0  0  0  0  0  0  0  0  0  0  0  0
    5.2500    3.8971    0.0000 C   0  0  0  0  0  0  0  0  0  0  0  0
    6.0000    5.1962    0.0000 C   0  0  0  0  0  0  0  0  0  0  0  0
    6.7500    6.4952    0.0000 F   0  0  0  0  0  0  0  0  0  0  0  0
    4.7010    5.9462    0.0000 F   0  0  0  0  0  0  0  0  0  0  0  0
    7.2990    4.4462    0.0000 F   0  0  0  0  0  0  0  0  0  0  0  0
    3.7500    3.8971    0.0000 C   0  0  0  0  0  0  0  0  0  0  0  0
  1  2  1  0
  2  3  2  0
  3  4  1  0
  4  5  2  0
  5  6  1  0
  6  7  1  0
  6  8  2  0
  8  9  1  0
  9 10  1  0
 10 11  2  0
 11 12  1  0
 12 13  2  0
 13 14  1  0
 14 15  3  0
 13 16  1  0
 16 17  1  0
 17 18  1  0
 17 19  1  0
 17 20  1  0
 16 21  2  0
  8  2  1  0
 21 10  1  0
M  END
>  <assay_chembl_id>  (179) 
CHEMBL964136

>  <assay_description>  (179) 
Displacement of [3H]DHT from human cloned androgen receptor expressed in Sf9 cells

>  <parent_molecule_chembl_id>  (179) 
CHEMBL462027

>  <canonical_smiles>  (179) 
Cc1cccc(C)c1Sc1ccc(C#N)c(C(F)(F)F)c1

>  <standard_type>  (179) 
IC50

>  <standard_relation>  (179) 
=

>  <standard_value>  (179) 
411.0

>  <standard_units>  (179) 
nM

>  <target_pref_name>  (179) 
Androgen Receptor

>  <target_chembl_id>  (179) 
CHEMBL1871

>  <target_organism>  (179) 
Homo sapiens

>  <pchembl_median>  (179) 
4.48

$$$$
CHEMBL453244
     RDKit          2D

 16 17  0  0  0  0  0  0  0  0999 V2000
    3.7500   -1.2990    0.0000 C   0  0  0  0  0  0  0  0  0  0  0  0
    3.0000    0.0000    0.0000 O   0  0  0  0  0  0  0  0  0  0  0  0
    1.5000    0.0000    0.0000 C   0  0  0  0  0  0  0  0  0  0  0  0
    0.7500   -1.2990    0.0000 C   0  0  0  0  0  0  0  0  0  0  0  0
   -0.7500   -1.2990    0.0000 C   0  0  0  0  0  0  0  0  0  0  0  0
   -1.5000   -2.5981    0.0000 S   0  0  0  0  0  0  0  0  0  0  0  0
   -3.0000   -2.5981    0.0000 C   0  0  0  0  0  0  0  0  0  0  0  0
   -3.7500   -3.8971    0.0000 C   0  0  0  0  0  0  0  0  0  0  0  0
   -5.1989   -4.2853    0.0000 C   0  0  0  0  0  0  0  0  0  0  0  0
   -4.8107   -5.7342    0.0000 C   0  0  0  0  0  0  0  0  0  0  0  0
   -3.3618   -5.3460    0.0000 C   0  0  0  0  0  0  0  0  0  0  0  0
   -1.5000    0.0000    0.0000 C   0  0  0  0  0  0  0  0  0  0  0  0
   -0.7500    1.2990    0.0000 C   0  0  0  0  0  0  0  0  0  0  0  0
    0.7500    1.2990    0.0000 C   0  0  0  0  0  0  0  0  0  0  0  0
    1.5000    2.5981    0.0000 C   0  0  0  0  0  0  0  0  0  0  0  0
    2.2500    3.8971    0.0000 N   0  0  0  0  0  0  0  0  0  0  0  0
  1  2  1  0
  2  3  1  0
  3  4  2  0
  4  5  1  0
  5  6  1  0
  6  7  1  0
  7  8  1  0
  8  9  1  0
  9 10  1  0
 10 11  1  0
  5 12  2  0
 12 13  1  0
 13 14  2  0
 14 15  1  0
 15 16  3  0
 14  3  1  0
 11  8  1  0
M  END
>  <assay_chembl_id>  (180) 
CHEMBL964136

>  <assay_description>  (180) 
Displacement of [3H]DHT from human cloned androgen receptor expressed in Sf9 cells

>  <parent_molecule_chembl_id>  (180) 
CHEMBL453244

>  <canonical_smiles>  (180) 
COc1cc(SCC2CCC2)ccc1C#N

>  <standard_type>  (180) 
IC50

>  <standard_relation>  (180) 
=

>  <standard_value>  (180) 
441.0

>  <standard_units>  (180) 
nM

>  <target_pref_name>  (180) 
Androgen Receptor

>  <target_chembl_id>  (180) 
CHEMBL1871

>  <target_organism>  (180) 
Homo sapiens

>  <pchembl_median>  (180) 
4.46

$$$$
CHEMBL503687
     RDKit          2D

 18 18  0  0  0  0  0  0  0  0999 V2000
    7.5000   -2.5981    0.0000 C   0  0  0  0  0  0  0  0  0  0  0  0
    6.0000   -2.5981    0.0000 C   0  0  0  0  0  0  0  0  0  0  0  0
    5.2500   -3.8971    0.0000 C   0  0  0  0  0  0  0  0  0  0  0  0
    5.2500   -1.2990    0.0000 C   0  0  0  0  0  0  0  0  0  0  0  0
    3.7500   -1.2990    0.0000 C   0  0  0  0  0  0  0  0  0  0  0  0
    3.0000    0.0000    0.0000 S   0  0  0  0  0  0  0  0  0  0  0  0
    1.5000    0.0000    0.0000 C   0  0  0  0  0  0  0  0  0  0  0  0
    0.7500   -1.2990    0.0000 C   0  0  0  0  0  0  0  0  0  0  0  0
   -0.7500   -1.2990    0.0000 C   0  0  0  0  0  0  0  0  0  0  0  0
   -1.5000    0.0000    0.0000 C   0  0  0  0  0  0  0  0  0  0  0  0
   -3.0000    0.0000    0.0000 C   0  0  0  0  0  0  0  0  0  0  0  0
   -4.5000    0.0000    0.0000 N   0  0  0  0  0  0  0  0  0  0  0  0
   -0.7500    1.2990    0.0000 C   0  0  0  0  0  0  0  0  0  0  0  0
   -1.5000    2.5981    0.0000 C   0  0  0  0  0  0  0  0  0  0  0  0
   -2.2500    3.8971    0.0000 F   0  0  0  0  0  0  0  0  0  0  0  0
   -0.2010    3.3481    0.0000 F   0  0  0  0  0  0  0  0  0  0  0  0
   -2.7990    1.8481    0.0000 F   0  0  0  0  0  0  0  0  0  0  0  0
    0.7500    1.2990    0.0000 C   0  0  0  0  0  0  0  0  0  0  0  0
  1  2  1  0
  2  3  1  0
  2  4  1  0
  4  5  1  0
  5  6  1  0
  6  7  1  0
  7  8  2  0
  8  9  1  0
  9 10  2  0
 10 11  1  0
 11 12  3  0
 10 13  1  0
 13 14  1  0
 14 15  1  0
 14 16  1  0
 14 17  1  0
 13 18  2  0
 18  7  1  0
M  END
>  <assay_chembl_id>  (181) 
CHEMBL964136

>  <assay_description>  (181) 
Displacement of [3H]DHT from human cloned androgen receptor expressed in Sf9 cells

>  <parent_molecule_chembl_id>  (181) 
CHEMBL503687

>  <canonical_smiles>  (181) 
CC(C)CCSc1ccc(C#N)c(C(F)(F)F)c1

>  <standard_type>  (181) 
IC50

>  <standard_relation>  (181) 
=

>  <standard_value>  (181) 
519.0

>  <standard_units>  (181) 
nM

>  <target_pref_name>  (181) 
Androgen Receptor

>  <target_chembl_id>  (181) 
CHEMBL1871

>  <target_organism>  (181) 
Homo sapiens

>  <pchembl_median>  (181) 
4.39

$$$$
CHEMBL499137
     RDKit          2D

 20 21  0  0  0  0  0  0  0  0999 V2000
    3.0000    0.0000    0.0000 C   0  0  0  0  0  0  0  0  0  0  0  0
    1.5000    0.0000    0.0000 C   0  0  0  0  0  0  0  0  0  0  0  0
    0.7500   -1.2990    0.0000 C   0  0  0  0  0  0  0  0  0  0  0  0
   -0.7500   -1.2990    0.0000 C   0  0  0  0  0  0  0  0  0  0  0  0
   -1.5000    0.0000    0.0000 C   0  0  0  0  0  0  0  0  0  0  0  0
   -0.7500    1.2990    0.0000 C   0  0  0  0  0  0  0  0  0  0  0  0
    0.7500    1.2990    0.0000 C   0  0  0  0  0  0  0  0  0  0  0  0
    1.5000    2.5981    0.0000 O   0  0  0  0  0  0  0  0  0  0  0  0
    0.7500    3.8971    0.0000 C   0  0  0  0  0  0  0  0  0  0  0  0
    1.5000    5.1962    0.0000 C   0  0  0  0  0  0  0  0  0  0  0  0
    0.7500    6.4952    0.0000 C   0  0  0  0  0  0  0  0  0  0  0  0
   -0.7500    6.4952    0.0000 C   0  0  0  0  0  0  0  0  0  0  0  0
   -1.5000    7.7942    0.0000 C   0  0  0  0  0  0  0  0  0  0  0  0
   -2.2500    9.0933    0.0000 N   0  0  0  0  0  0  0  0  0  0  0  0
   -1.5000    5.1962    0.0000 C   0  0  0  0  0  0  0  0  0  0  0  0
   -3.0000    5.1962    0.0000 C   0  0  0  0  0  0  0  0  0  0  0  0
   -4.5000    5.1962    0.0000 F   0  0  0  0  0  0  0  0  0  0  0  0
   -3.0000    3.6962    0.0000 F   0  0  0  0  0  0  0  0  0  0  0  0
   -3.0000    6.6962    0.0000 F   0  0  0  0  0  0  0  0  0  0  0  0
   -0.7500    3.8971    0.0000 C   0  0  0  0  0  0  0  0  0  0  0  0
  1  2  1  0
  2  3  2  0
  3  4  1  0
  4  5  2  0
  5  6  1  0
  6  7  2  0
  7  8  1  0
  8  9  1  0
  9 10  2  0
 10 11  1  0
 11 12  2  0
 12 13  1  0
 13 14  3  0
 12 15  1  0
 15 16  1  0
 16 17  1  0
 16 18  1  0
 16 19  1  0
 15 20  2  0
  7  2  1  0
 20  9  1  0
M  END
>  <assay_chembl_id>  (182) 
CHEMBL964136

>  <assay_description>  (182) 
Displacement of [3H]DHT from human cloned androgen receptor expressed in Sf9 cells

>  <parent_molecule_chembl_id>  (182) 
CHEMBL499137

>  <canonical_smiles>  (182) 
Cc1ccccc1Oc1ccc(C#N)c(C(F)(F)F)c1

>  <standard_type>  (182) 
IC50

>  <standard_relation>  (182) 
=

>  <standard_value>  (182) 
535.0

>  <standard_units>  (182) 
nM

>  <target_pref_name>  (182) 
Androgen Receptor

>  <target_chembl_id>  (182) 
CHEMBL1871

>  <target_organism>  (182) 
Homo sapiens

>  <pchembl_median>  (182) 
4.35

$$$$
CHEMBL462234
     RDKit          2D

 22 23  0  0  0  0  0  0  0  0999 V2000
    3.0000    0.0000    0.0000 C   0  0  0  0  0  0  0  0  0  0  0  0
    1.5000    0.0000    0.0000 C   0  0  0  0  0  0  0  0  0  0  0  0
    0.7500   -1.2990    0.0000 C   0  0  0  0  0  0  0  0  0  0  0  0
   -0.7500   -1.2990    0.0000 C   0  0  0  0  0  0  0  0  0  0  0  0
   -1.5000   -2.5981    0.0000 C   0  0  0  0  0  0  0  0  0  0  0  0
   -1.5000    0.0000    0.0000 C   0  0  0  0  0  0  0  0  0  0  0  0
   -3.0000    0.0000    0.0000 S   0  0  0  0  0  0  0  0  0  0  0  0
   -3.7500    1.2990    0.0000 C   0  0  0  0  0  0  0  0  0  0  0  0
   -3.0000    2.5981    0.0000 C   0  0  0  0  0  0  0  0  0  0  0  0
   -3.7500    3.8971    0.0000 C   0  0  0  0  0  0  0  0  0  0  0  0
   -5.2500    3.8971    0.0000 C   0  0  0  0  0  0  0  0  0  0  0  0
   -6.0000    5.1962    0.0000 C   0  0  0  0  0  0  0  0  0  0  0  0
   -6.7500    6.4952    0.0000 N   0  0  0  0  0  0  0  0  0  0  0  0
   -6.0000    2.5981    0.0000 C   0  0  0  0  0  0  0  0  0  0  0  0
   -7.5000    2.5981    0.0000 C   0  0  0  0  0  0  0  0  0  0  0  0
   -9.0000    2.5981    0.0000 F   0  0  0  0  0  0  0  0  0  0  0  0
   -7.5000    1.0981    0.0000 F   0  0  0  0  0  0  0  0  0  0  0  0
   -7.5000    4.0981    0.0000 F   0  0  0  0  0  0  0  0  0  0  0  0
   -5.2500    1.2990    0.0000 C   0  0  0  0  0  0  0  0  0  0  0  0
   -0.7500    1.2990    0.0000 C   0  0  0  0  0  0  0  0  0  0  0  0
   -1.5000    2.5981    0.0000 C   0  0  0  0  0  0  0  0  0  0  0  0
    0.7500    1.2990    0.0000 C   0  0  0  0  0  0  0  0  0  0  0  0
  1  2  1  0
  2  3  2  0
  3  4  1  0
  4  5  1  0
  4  6  2  0
  6  7  1  0
  7  8  1  0
  8  9  2  0
  9 10  1  0
 10 11  2  0
 11 12  1  0
 12 13  3  0
 11 14  1  0
 14 15  1  0
 15 16  1  0
 15 17  1  0
 15 18  1  0
 14 19  2  0
  6 20  1  0
 20 21  1  0
 20 22  2  0
 22  2  1  0
 19  8  1  0
M  END
>  <assay_chembl_id>  (183) 
CHEMBL964136

>  <assay_description>  (183) 
Displacement of [3H]DHT from human cloned androgen receptor expressed in Sf9 cells

>  <parent_molecule_chembl_id>  (183) 
CHEMBL462234

>  <canonical_smiles>  (183) 
Cc1cc(C)c(Sc2ccc(C#N)c(C(F)(F)F)c2)c(C)c1

>  <standard_type>  (183) 
IC50

>  <standard_relation>  (183) 
=

>  <standard_value>  (183) 
1340.0

>  <standard_units>  (183) 
nM

>  <target_pref_name>  (183) 
Androgen Receptor

>  <target_chembl_id>  (183) 
CHEMBL1871

>  <target_organism>  (183) 
Homo sapiens

>  <pchembl_median>  (183) 
4.26

$$$$
CHEMBL464764
     RDKit          2D

 20 21  0  0  0  0  0  0  0  0999 V2000
    3.0000    0.0000    0.0000 C   0  0  0  0  0  0  0  0  0  0  0  0
    1.5000    0.0000    0.0000 C   0  0  0  0  0  0  0  0  0  0  0  0
    0.7500   -1.2990    0.0000 C   0  0  0  0  0  0  0  0  0  0  0  0
   -0.7500   -1.2990    0.0000 C   0  0  0  0  0  0  0  0  0  0  0  0
   -1.5000    0.0000    0.0000 C   0  0  0  0  0  0  0  0  0  0  0  0
   -0.7500    1.2990    0.0000 C   0  0  0  0  0  0  0  0  0  0  0  0
   -1.5000    2.5981    0.0000 O   0  0  0  0  0  0  0  0  0  0  0  0
   -0.7500    3.8971    0.0000 C   0  0  0  0  0  0  0  0  0  0  0  0
    0.7500    3.8971    0.0000 C   0  0  0  0  0  0  0  0  0  0  0  0
    1.5000    5.1962    0.0000 C   0  0  0  0  0  0  0  0  0  0  0  0
    0.7500    6.4952    0.0000 C   0  0  0  0  0  0  0  0  0  0  0  0
    1.5000    7.7942    0.0000 C   0  0  0  0  0  0  0  0  0  0  0  0
    2.2500    9.0933    0.0000 N   0  0  0  0  0  0  0  0  0  0  0  0
   -0.7500    6.4952    0.0000 C   0  0  0  0  0  0  0  0  0  0  0  0
   -1.5000    7.7942    0.0000 C   0  0  0  0  0  0  0  0  0  0  0  0
   -2.2500    9.0933    0.0000 F   0  0  0  0  0  0  0  0  0  0  0  0
   -2.7990    7.0442    0.0000 F   0  0  0  0  0  0  0  0  0  0  0  0
   -0.2010    8.5442    0.0000 F   0  0  0  0  0  0  0  0  0  0  0  0
   -1.5000    5.1962    0.0000 C   0  0  0  0  0  0  0  0  0  0  0  0
    0.7500    1.2990    0.0000 C   0  0  0  0  0  0  0  0  0  0  0  0
  1  2  1  0
  2  3  2  0
  3  4  1  0
  4  5  2  0
  5  6  1  0
  6  7  1  0
  7  8  1  0
  8  9  2  0
  9 10  1  0
 10 11  2  0
 11 12  1  0
 12 13  3  0
 11 14  1  0
 14 15  1  0
 15 16  1  0
 15 17  1  0
 15 18  1  0
 14 19  2  0
  6 20  2  0
 20  2  1  0
 19  8  1  0
M  END
>  <assay_chembl_id>  (184) 
CHEMBL964136

>  <assay_description>  (184) 
Displacement of [3H]DHT from human cloned androgen receptor expressed in Sf9 cells

>  <parent_molecule_chembl_id>  (184) 
CHEMBL464764

>  <canonical_smiles>  (184) 
Cc1cccc(Oc2ccc(C#N)c(C(F)(F)F)c2)c1

>  <standard_type>  (184) 
IC50

>  <standard_relation>  (184) 
=

>  <standard_value>  (184) 
1680.0

>  <standard_units>  (184) 
nM

>  <target_pref_name>  (184) 
Androgen Receptor

>  <target_chembl_id>  (184) 
CHEMBL1871

>  <target_organism>  (184) 
Homo sapiens

>  <pchembl_median>  (184) 
5.17

$$$$
CHEMBL462663
     RDKit          2D

 16 16  0  0  0  0  0  0  0  0999 V2000
    3.7500   -1.2990    0.0000 C   0  0  0  0  0  0  0  0  0  0  0  0
    3.0000    0.0000    0.0000 O   0  0  0  0  0  0  0  0  0  0  0  0
    1.5000    0.0000    0.0000 C   0  0  0  0  0  0  0  0  0  0  0  0
    0.7500   -1.2990    0.0000 C   0  0  0  0  0  0  0  0  0  0  0  0
   -0.7500   -1.2990    0.0000 C   0  0  0  0  0  0  0  0  0  0  0  0
   -1.5000   -2.5981    0.0000 S   0  0  0  0  0  0  0  0  0  0  0  0
   -3.0000   -2.5981    0.0000 C   0  0  0  0  0  0  0  0  0  0  0  0
   -3.7500   -3.8971    0.0000 C   0  0  0  0  0  0  0  0  0  0  0  0
   -5.2500   -3.8971    0.0000 C   0  0  0  0  0  0  0  0  0  0  0  0
   -6.0000   -5.1962    0.0000 C   0  0  0  0  0  0  0  0  0  0  0  0
   -6.0000   -2.5981    0.0000 C   0  0  0  0  0  0  0  0  0  0  0  0
   -1.5000    0.0000    0.0000 C   0  0  0  0  0  0  0  0  0  0  0  0
   -0.7500    1.2990    0.0000 C   0  0  0  0  0  0  0  0  0  0  0  0
    0.7500    1.2990    0.0000 C   0  0  0  0  0  0  0  0  0  0  0  0
    1.5000    2.5981    0.0000 C   0  0  0  0  0  0  0  0  0  0  0  0
    2.2500    3.8971    0.0000 N   0  0  0  0  0  0  0  0  0  0  0  0
  1  2  1  0
  2  3  1  0
  3  4  2  0
  4  5  1  0
  5  6  1  0
  6  7  1  0
  7  8  1  0
  8  9  1  0
  9 10  1  0
  9 11  1  0
  5 12  2  0
 12 13  1  0
 13 14  2  0
 14 15  1  0
 15 16  3  0
 14  3  1  0
M  END
>  <assay_chembl_id>  (185) 
CHEMBL964136

>  <assay_description>  (185) 
Displacement of [3H]DHT from human cloned androgen receptor expressed in Sf9 cells

>  <parent_molecule_chembl_id>  (185) 
CHEMBL462663

>  <canonical_smiles>  (185) 
COc1cc(SCCC(C)C)ccc1C#N

>  <standard_type>  (185) 
IC50

>  <standard_relation>  (185) 
=

>  <standard_value>  (185) 
1730.0

>  <standard_units>  (185) 
nM

>  <target_pref_name>  (185) 
Androgen Receptor

>  <target_chembl_id>  (185) 
CHEMBL1871

>  <target_organism>  (185) 
Homo sapiens

>  <pchembl_median>  (185) 
5.24

$$$$
CHEMBL464929
     RDKit          2D

 18 19  0  0  0  0  0  0  0  0999 V2000
    3.7500   -1.2990    0.0000 C   0  0  0  0  0  0  0  0  0  0  0  0
    3.0000    0.0000    0.0000 O   0  0  0  0  0  0  0  0  0  0  0  0
    1.5000    0.0000    0.0000 C   0  0  0  0  0  0  0  0  0  0  0  0
    0.7500   -1.2990    0.0000 C   0  0  0  0  0  0  0  0  0  0  0  0
   -0.7500   -1.2990    0.0000 C   0  0  0  0  0  0  0  0  0  0  0  0
   -1.5000   -2.5981    0.0000 C   0  0  0  0  0  0  0  0  0  0  0  0
   -2.2500   -3.8971    0.0000 N   0  0  0  0  0  0  0  0  0  0  0  0
   -1.5000    0.0000    0.0000 C   0  0  0  0  0  0  0  0  0  0  0  0
   -0.7500    1.2990    0.0000 C   0  0  0  0  0  0  0  0  0  0  0  0
    0.7500    1.2990    0.0000 C   0  0  0  0  0  0  0  0  0  0  0  0
    1.5000    2.5981    0.0000 O   0  0  0  0  0  0  0  0  0  0  0  0
    0.7500    3.8971    0.0000 C   0  0  0  0  0  0  0  0  0  0  0  0
    1.5000    5.1962    0.0000 C   0  0  0  0  0  0  0  0  0  0  0  0
    0.7500    6.4952    0.0000 C   0  0  0  0  0  0  0  0  0  0  0  0
   -0.7500    6.4952    0.0000 C   0  0  0  0  0  0  0  0  0  0  0  0
   -1.5000    7.7942    0.0000 C   0  0  0  0  0  0  0  0  0  0  0  0
   -1.5000    5.1962    0.0000 C   0  0  0  0  0  0  0  0  0  0  0  0
   -0.7500    3.8971    0.0000 C   0  0  0  0  0  0  0  0  0  0  0  0
  1  2  1  0
  2  3  1  0
  3  4  2  0
  4  5  1  0
  5  6  1  0
  6  7  3  0
  5  8  2  0
  8  9  1  0
  9 10  2  0
 10 11  1  0
 11 12  1  0
 12 13  2  0
 13 14  1  0
 14 15  2  0
 15 16  1  0
 15 17  1  0
 17 18  2  0
 10  3  1  0
 18 12  1  0
M  END
>  <assay_chembl_id>  (186) 
CHEMBL964136

>  <assay_description>  (186) 
Displacement of [3H]DHT from human cloned androgen receptor expressed in Sf9 cells

>  <parent_molecule_chembl_id>  (186) 
CHEMBL464929

>  <canonical_smiles>  (186) 
COc1cc(C#N)ccc1Oc1ccc(C)cc1

>  <standard_type>  (186) 
IC50

>  <standard_relation>  (186) 
=

>  <standard_value>  (186) 
5210.0

>  <standard_units>  (186) 
nM

>  <target_pref_name>  (186) 
Androgen Receptor

>  <target_chembl_id>  (186) 
CHEMBL1871

>  <target_organism>  (186) 
Homo sapiens

>  <pchembl_median>  (186) 
5.08

$$$$
CHEMBL465539
     RDKit          2D

 20 21  0  0  0  0  0  0  0  0999 V2000
    3.0000    0.0000    0.0000 C   0  0  0  0  0  0  0  0  0  0  0  0
    1.5000    0.0000    0.0000 C   0  0  0  0  0  0  0  0  0  0  0  0
    0.7500   -1.2990    0.0000 C   0  0  0  0  0  0  0  0  0  0  0  0
   -0.7500   -1.2990    0.0000 C   0  0  0  0  0  0  0  0  0  0  0  0
   -1.5000    0.0000    0.0000 C   0  0  0  0  0  0  0  0  0  0  0  0
   -3.0000    0.0000    0.0000 O   0  0  0  0  0  0  0  0  0  0  0  0
   -3.7500    1.2990    0.0000 C   0  0  0  0  0  0  0  0  0  0  0  0
   -3.0000    2.5981    0.0000 C   0  0  0  0  0  0  0  0  0  0  0  0
   -3.7500    3.8971    0.0000 C   0  0  0  0  0  0  0  0  0  0  0  0
   -5.2500    3.8971    0.0000 C   0  0  0  0  0  0  0  0  0  0  0  0
   -6.0000    5.1962    0.0000 C   0  0  0  0  0  0  0  0  0  0  0  0
   -6.7500    6.4952    0.0000 N   0  0  0  0  0  0  0  0  0  0  0  0
   -6.0000    2.5981    0.0000 C   0  0  0  0  0  0  0  0  0  0  0  0
   -7.5000    2.5981    0.0000 C   0  0  0  0  0  0  0  0  0  0  0  0
   -9.0000    2.5981    0.0000 F   0  0  0  0  0  0  0  0  0  0  0  0
   -7.5000    1.0981    0.0000 F   0  0  0  0  0  0  0  0  0  0  0  0
   -7.5000    4.0981    0.0000 F   0  0  0  0  0  0  0  0  0  0  0  0
   -5.2500    1.2990    0.0000 C   0  0  0  0  0  0  0  0  0  0  0  0
   -0.7500    1.2990    0.0000 C   0  0  0  0  0  0  0  0  0  0  0  0
    0.7500    1.2990    0.0000 C   0  0  0  0  0  0  0  0  0  0  0  0
  1  2  1  0
  2  3  2  0
  3  4  1  0
  4  5  2  0
  5  6  1  0
  6  7  1  0
  7  8  2  0
  8  9  1  0
  9 10  2  0
 10 11  1  0
 11 12  3  0
 10 13  1  0
 13 14  1  0
 14 15  1  0
 14 16  1  0
 14 17  1  0
 13 18  2  0
  5 19  1  0
 19 20  2  0
 20  2  1  0
 18  7  1  0
M  END
>  <assay_chembl_id>  (187) 
CHEMBL964136

>  <assay_description>  (187) 
Displacement of [3H]DHT from human cloned androgen receptor expressed in Sf9 cells

>  <parent_molecule_chembl_id>  (187) 
CHEMBL465539

>  <canonical_smiles>  (187) 
Cc1ccc(Oc2ccc(C#N)c(C(F)(F)F)c2)cc1

>  <standard_type>  (187) 
IC50

>  <standard_relation>  (187) 
=

>  <standard_value>  (187) 
5330.0

>  <standard_units>  (187) 
nM

>  <target_pref_name>  (187) 
Androgen Receptor

>  <target_chembl_id>  (187) 
CHEMBL1871

>  <target_organism>  (187) 
Homo sapiens

>  <pchembl_median>  (187) 
5.17

$$$$
CHEMBL456237
     RDKit          2D

 29 32  0  0  0  0  0  0  0  0999 V2000
    6.9199   -4.5797    0.0000 F   0  0  0  0  0  0  0  0  0  0  0  0
    5.4933   -4.1162    0.0000 C   0  0  0  0  0  0  0  0  0  0  0  0
    4.3786   -5.1199    0.0000 C   0  0  0  0  0  0  0  0  0  0  0  0
    2.9520   -4.6564    0.0000 C   0  0  0  0  0  0  0  0  0  0  0  0
    2.6401   -3.1891    0.0000 C   0  0  0  0  0  0  0  0  0  0  0  0
    1.2135   -2.7256    0.0000 C   0  0  0  0  0  0  0  0  0  0  0  0
    0.7500   -1.2990    0.0000 C   0  0  0  0  0  0  0  0  0  0  0  0
    1.5000    0.0000    0.0000 C   0  0  0  0  0  0  0  0  0  0  0  0
    0.7500    1.2990    0.0000 C   0  0  0  0  0  0  0  0  0  0  0  0
   -0.7500    1.2990    0.0000 C   0  0  0  0  0  0  0  0  0  0  0  0
   -1.5000    0.0000    0.0000 C   0  0  0  0  0  0  0  0  0  0  0  0
   -3.0000    0.0000    0.0000 C   0  0  0  0  0  0  0  0  0  0  0  0
   -4.5000    0.0000    0.0000 F   0  0  0  0  0  0  0  0  0  0  0  0
   -3.0000    1.5000    0.0000 F   0  0  0  0  0  0  0  0  0  0  0  0
   -3.0000   -1.5000    0.0000 F   0  0  0  0  0  0  0  0  0  0  0  0
   -0.7500   -1.2990    0.0000 C   0  0  0  0  0  0  0  0  0  0  0  0
   -1.2135   -2.7256    0.0000 N   0  0  0  0  0  0  0  0  0  0  0  0
    0.0000   -3.6073    0.0000 N   0  0  0  0  0  0  0  0  0  0  0  0
    0.0000   -5.1073    0.0000 C   0  0  0  0  0  0  0  0  0  0  0  0
   -1.2990   -5.8573    0.0000 C   0  0  0  0  0  0  0  0  0  0  0  0
   -2.5981   -5.1073    0.0000 C   0  0  0  0  0  0  0  0  0  0  0  0
   -3.8971   -5.8573    0.0000 C   0  0  0  0  0  0  0  0  0  0  0  0
   -3.8971   -7.3573    0.0000 C   0  0  0  0  0  0  0  0  0  0  0  0
   -5.1962   -8.1073    0.0000 F   0  0  0  0  0  0  0  0  0  0  0  0
   -2.5981   -8.1073    0.0000 C   0  0  0  0  0  0  0  0  0  0  0  0
   -1.2990   -7.3573    0.0000 C   0  0  0  0  0  0  0  0  0  0  0  0
   -0.0000   -8.1073    0.0000 Cl  0  0  0  0  0  0  0  0  0  0  0  0
    3.7548   -2.1855    0.0000 C   0  0  0  0  0  0  0  0  0  0  0  0
    5.1814   -2.6490    0.0000 C   0  0  0  0  0  0  0  0  0  0  0  0
  1  2  1  0
  2  3  2  0
  3  4  1  0
  4  5  2  0
  5  6  1  0
  6  7  2  0
  7  8  1  0
  8  9  2  0
  9 10  1  0
 10 11  2  0
 11 12  1  0
 12 13  1  0
 12 14  1  0
 12 15  1  0
 11 16  1  0
 16 17  2  0
 17 18  1  0
 18 19  1  0
 19 20  1  0
 20 21  2  0
 21 22  1  0
 22 23  2  0
 23 24  1  0
 23 25  1  0
 25 26  2  0
 26 27  1  0
  5 28  1  0
 28 29  2  0
 29  2  1  0
 18  6  1  0
 26 20  1  0
 16  7  1  0
M  END
>  <assay_chembl_id>  (188) 
CHEMBL947312

>  <assay_description>  (188) 
Displacement of radiolabeled mibolerone from human androgen receptor by filter paper assay

>  <parent_molecule_chembl_id>  (188) 
CHEMBL456237

>  <canonical_smiles>  (188) 
Fc1ccc(-c2c3cccc(C(F)(F)F)c3nn2Cc2ccc(F)cc2Cl)cc1

>  <standard_type>  (188) 
IC50

>  <standard_relation>  (188) 
=

>  <standard_value>  (188) 
2300.0

>  <standard_units>  (188) 
nM

>  <target_pref_name>  (188) 
Androgen Receptor

>  <target_chembl_id>  (188) 
CHEMBL1871

>  <target_organism>  (188) 
Homo sapiens

>  <pchembl_median>  (188) 
5.13

$$$$
CHEMBL513195
     RDKit          2D

 21 22  0  0  0  0  0  0  0  0999 V2000
    3.7500   -1.2990    0.0000 C   0  0  0  0  0  0  0  0  0  0  0  0
    3.0000    0.0000    0.0000 C   0  0  0  0  0  0  0  0  0  0  0  0
    1.5000    0.0000    0.0000 C   0  0  0  0  0  0  0  0  0  0  0  0
    0.7500   -1.2990    0.0000 C   0  0  0  0  0  0  0  0  0  0  0  0
   -0.7500   -1.2990    0.0000 C   0  0  0  0  0  0  0  0  0  0  0  0
   -1.5000    0.0000    0.0000 C   0  0  0  0  0  0  0  0  0  0  0  0
   -0.7500    1.2990    0.0000 C   0  0  0  0  0  0  0  0  0  0  0  0
    0.7500    1.2990    0.0000 C   0  0  0  0  0  0  0  0  0  0  0  0
    1.5000    2.5981    0.0000 O   0  0  0  0  0  0  0  0  0  0  0  0
    0.7500    3.8971    0.0000 C   0  0  0  0  0  0  0  0  0  0  0  0
    1.5000    5.1962    0.0000 C   0  0  0  0  0  0  0  0  0  0  0  0
    0.7500    6.4952    0.0000 C   0  0  0  0  0  0  0  0  0  0  0  0
   -0.7500    6.4952    0.0000 C   0  0  0  0  0  0  0  0  0  0  0  0
   -1.5000    7.7942    0.0000 C   0  0  0  0  0  0  0  0  0  0  0  0
   -2.2500    9.0933    0.0000 N   0  0  0  0  0  0  0  0  0  0  0  0
   -1.5000    5.1962    0.0000 C   0  0  0  0  0  0  0  0  0  0  0  0
   -3.0000    5.1962    0.0000 C   0  0  0  0  0  0  0  0  0  0  0  0
   -4.5000    5.1962    0.0000 F   0  0  0  0  0  0  0  0  0  0  0  0
   -3.0000    3.6962    0.0000 F   0  0  0  0  0  0  0  0  0  0  0  0
   -3.0000    6.6962    0.0000 F   0  0  0  0  0  0  0  0  0  0  0  0
   -0.7500    3.8971    0.0000 C   0  0  0  0  0  0  0  0  0  0  0  0
  1  2  1  0
  2  3  1  0
  3  4  2  0
  4  5  1  0
  5  6  2  0
  6  7  1  0
  7  8  2  0
  8  9  1  0
  9 10  1  0
 10 11  2  0
 11 12  1  0
 12 13  2  0
 13 14  1  0
 14 15  3  0
 13 16  1  0
 16 17  1  0
 17 18  1  0
 17 19  1  0
 17 20  1  0
 16 21  2  0
  8  3  1  0
 21 10  1  0
M  END
>  <assay_chembl_id>  (189) 
CHEMBL987689

>  <assay_description>  (189) 
Displacement of [3H]DHT from human cloned androgen receptor expressed in insect Sf9 cell system

>  <parent_molecule_chembl_id>  (189) 
CHEMBL513195

>  <canonical_smiles>  (189) 
CCc1ccccc1Oc1ccc(C#N)c(C(F)(F)F)c1

>  <standard_type>  (189) 
IC50

>  <standard_relation>  (189) 
=

>  <standard_value>  (189) 
20.0

>  <standard_units>  (189) 
nM

>  <target_pref_name>  (189) 
Androgen Receptor

>  <target_chembl_id>  (189) 
CHEMBL1871

>  <target_organism>  (189) 
Homo sapiens

>  <pchembl_median>  (189) 
5.4

$$$$
CHEMBL504179
     RDKit          2D

 21 22  0  0  0  0  0  0  0  0999 V2000
    3.7500   -1.2990    0.0000 C   0  0  0  0  0  0  0  0  0  0  0  0
    3.0000    0.0000    0.0000 S   0  0  0  0  0  0  0  0  0  0  0  0
    1.5000    0.0000    0.0000 C   0  0  0  0  0  0  0  0  0  0  0  0
    0.7500   -1.2990    0.0000 C   0  0  0  0  0  0  0  0  0  0  0  0
   -0.7500   -1.2990    0.0000 C   0  0  0  0  0  0  0  0  0  0  0  0
   -1.5000    0.0000    0.0000 C   0  0  0  0  0  0  0  0  0  0  0  0
   -0.7500    1.2990    0.0000 C   0  0  0  0  0  0  0  0  0  0  0  0
    0.7500    1.2990    0.0000 C   0  0  0  0  0  0  0  0  0  0  0  0
    1.5000    2.5981    0.0000 O   0  0  0  0  0  0  0  0  0  0  0  0
    3.0000    2.5981    0.0000 C   0  0  0  0  0  0  0  0  0  0  0  0
    3.7500    1.2990    0.0000 C   0  0  0  0  0  0  0  0  0  0  0  0
    5.2500    1.2990    0.0000 C   0  0  0  0  0  0  0  0  0  0  0  0
    6.0000    2.5981    0.0000 C   0  0  0  0  0  0  0  0  0  0  0  0
    7.5000    2.5981    0.0000 C   0  0  0  0  0  0  0  0  0  0  0  0
    9.0000    2.5981    0.0000 N   0  0  0  0  0  0  0  0  0  0  0  0
    5.2500    3.8971    0.0000 C   0  0  0  0  0  0  0  0  0  0  0  0
    6.0000    5.1962    0.0000 C   0  0  0  0  0  0  0  0  0  0  0  0
    6.7500    6.4952    0.0000 F   0  0  0  0  0  0  0  0  0  0  0  0
    4.7010    5.9462    0.0000 F   0  0  0  0  0  0  0  0  0  0  0  0
    7.2990    4.4462    0.0000 F   0  0  0  0  0  0  0  0  0  0  0  0
    3.7500    3.8971    0.0000 C   0  0  0  0  0  0  0  0  0  0  0  0
  1  2  1  0
  2  3  1  0
  3  4  2  0
  4  5  1  0
  5  6  2  0
  6  7  1  0
  7  8  2  0
  8  9  1  0
  9 10  1  0
 10 11  2  0
 11 12  1  0
 12 13  2  0
 13 14  1  0
 14 15  3  0
 13 16  1  0
 16 17  1  0
 17 18  1  0
 17 19  1  0
 17 20  1  0
 16 21  2  0
  8  3  1  0
 21 10  1  0
M  END
>  <assay_chembl_id>  (190) 
CHEMBL987690

>  <assay_description>  (190) 
Antagonist activity at human androgen receptor expressed in human MDA-MB-231 cells assessed as inhibition of DHT-induced response

>  <parent_molecule_chembl_id>  (190) 
CHEMBL504179

>  <canonical_smiles>  (190) 
CSc1ccccc1Oc1ccc(C#N)c(C(F)(F)F)c1

>  <standard_type>  (190) 
IC50

>  <standard_relation>  (190) 
=

>  <standard_value>  (190) 
22.0

>  <standard_units>  (190) 
nM

>  <target_pref_name>  (190) 
Androgen Receptor

>  <target_chembl_id>  (190) 
CHEMBL1871

>  <target_organism>  (190) 
Homo sapiens

>  <pchembl_median>  (190) 
6.365

$$$$
CHEMBL470204
     RDKit          2D

 17 18  0  0  0  0  0  0  0  0999 V2000
    3.0000    0.0000    0.0000 C   0  0  0  0  0  0  0  0  0  0  0  0
    1.5000    0.0000    0.0000 C   0  0  0  0  0  0  0  0  0  0  0  0
    0.7500   -1.2990    0.0000 C   0  0  0  0  0  0  0  0  0  0  0  0
   -0.7500   -1.2990    0.0000 C   0  0  0  0  0  0  0  0  0  0  0  0
   -1.5000    0.0000    0.0000 C   0  0  0  0  0  0  0  0  0  0  0  0
   -0.7500    1.2990    0.0000 C   0  0  0  0  0  0  0  0  0  0  0  0
    0.7500    1.2990    0.0000 C   0  0  0  0  0  0  0  0  0  0  0  0
    1.5000    2.5981    0.0000 O   0  0  0  0  0  0  0  0  0  0  0  0
    0.7500    3.8971    0.0000 C   0  0  0  0  0  0  0  0  0  0  0  0
    1.5000    5.1962    0.0000 C   0  0  0  0  0  0  0  0  0  0  0  0
    0.7500    6.4952    0.0000 C   0  0  0  0  0  0  0  0  0  0  0  0
   -0.7500    6.4952    0.0000 C   0  0  0  0  0  0  0  0  0  0  0  0
   -1.5000    7.7942    0.0000 C   0  0  0  0  0  0  0  0  0  0  0  0
   -2.2500    9.0933    0.0000 N   0  0  0  0  0  0  0  0  0  0  0  0
   -1.5000    5.1962    0.0000 C   0  0  0  0  0  0  0  0  0  0  0  0
   -3.0000    5.1962    0.0000 Cl  0  0  0  0  0  0  0  0  0  0  0  0
   -0.7500    3.8971    0.0000 C   0  0  0  0  0  0  0  0  0  0  0  0
  1  2  1  0
  2  3  2  0
  3  4  1  0
  4  5  2  0
  5  6  1  0
  6  7  2  0
  7  8  1  0
  8  9  1  0
  9 10  2  0
 10 11  1  0
 11 12  2  0
 12 13  1  0
 13 14  3  0
 12 15  1  0
 15 16  1  0
 15 17  2  0
  7  2  1  0
 17  9  1  0
M  END
>  <assay_chembl_id>  (191) 
CHEMBL987689

>  <assay_description>  (191) 
Displacement of [3H]DHT from human cloned androgen receptor expressed in insect Sf9 cell system

>  <parent_molecule_chembl_id>  (191) 
CHEMBL470204

>  <canonical_smiles>  (191) 
Cc1ccccc1Oc1ccc(C#N)c(Cl)c1

>  <standard_type>  (191) 
IC50

>  <standard_relation>  (191) 
=

>  <standard_value>  (191) 
30.0

>  <standard_units>  (191) 
nM

>  <target_pref_name>  (191) 
Androgen Receptor

>  <target_chembl_id>  (191) 
CHEMBL1871

>  <target_organism>  (191) 
Homo sapiens

>  <pchembl_median>  (191) 
7.09

$$$$
CHEMBL471645
     RDKit          2D

 20 21  0  0  0  0  0  0  0  0999 V2000
    4.5000    0.0000    0.0000 N   0  0  0  0  0  0  0  0  0  0  0  0
    3.0000    0.0000    0.0000 C   0  0  0  0  0  0  0  0  0  0  0  0
    1.5000    0.0000    0.0000 C   0  0  0  0  0  0  0  0  0  0  0  0
    0.7500   -1.2990    0.0000 C   0  0  0  0  0  0  0  0  0  0  0  0
   -0.7500   -1.2990    0.0000 C   0  0  0  0  0  0  0  0  0  0  0  0
   -1.5000    0.0000    0.0000 C   0  0  0  0  0  0  0  0  0  0  0  0
   -3.0000    0.0000    0.0000 O   0  0  0  0  0  0  0  0  0  0  0  0
   -3.7500    1.2990    0.0000 C   0  0  0  0  0  0  0  0  0  0  0  0
   -3.0000    2.5981    0.0000 C   0  0  0  0  0  0  0  0  0  0  0  0
   -3.7500    3.8971    0.0000 C   0  0  0  0  0  0  0  0  0  0  0  0
   -5.2500    3.8971    0.0000 C   0  0  0  0  0  0  0  0  0  0  0  0
   -6.0000    2.5981    0.0000 C   0  0  0  0  0  0  0  0  0  0  0  0
   -5.2500    1.2990    0.0000 C   0  0  0  0  0  0  0  0  0  0  0  0
   -6.0000    0.0000    0.0000 O   0  0  0  0  0  0  0  0  0  0  0  0
   -0.7500    1.2990    0.0000 C   0  0  0  0  0  0  0  0  0  0  0  0
    0.7500    1.2990    0.0000 C   0  0  0  0  0  0  0  0  0  0  0  0
    1.5000    2.5981    0.0000 C   0  0  0  0  0  0  0  0  0  0  0  0
    2.2500    3.8971    0.0000 F   0  0  0  0  0  0  0  0  0  0  0  0
    0.2010    3.3481    0.0000 F   0  0  0  0  0  0  0  0  0  0  0  0
    2.7990    1.8481    0.0000 F   0  0  0  0  0  0  0  0  0  0  0  0
  1  2  3  0
  2  3  1  0
  3  4  2  0
  4  5  1  0
  5  6  2  0
  6  7  1  0
  7  8  1  0
  8  9  2  0
  9 10  1  0
 10 11  2  0
 11 12  1  0
 12 13  2  0
 13 14  1  0
  6 15  1  0
 15 16  2  0
 16 17  1  0
 17 18  1  0
 17 19  1  0
 17 20  1  0
 16  3  1  0
 13  8  1  0
M  END
>  <assay_chembl_id>  (192) 
CHEMBL987689

>  <assay_description>  (192) 
Displacement of [3H]DHT from human cloned androgen receptor expressed in insect Sf9 cell system

>  <parent_molecule_chembl_id>  (192) 
CHEMBL471645

>  <canonical_smiles>  (192) 
N#Cc1ccc(Oc2ccccc2O)cc1C(F)(F)F

>  <standard_type>  (192) 
IC50

>  <standard_relation>  (192) 
=

>  <standard_value>  (192) 
34.0

>  <standard_units>  (192) 
nM

>  <target_pref_name>  (192) 
Androgen Receptor

>  <target_chembl_id>  (192) 
CHEMBL1871

>  <target_organism>  (192) 
Homo sapiens

>  <pchembl_median>  (192) 
6.515

$$$$
CHEMBL469983
     RDKit          2D

 22 23  0  0  0  0  0  0  0  0999 V2000
    3.7500   -1.2990    0.0000 C   0  0  0  0  0  0  0  0  0  0  0  0
    3.0000    0.0000    0.0000 O   0  0  0  0  0  0  0  0  0  0  0  0
    1.5000    0.0000    0.0000 C   0  0  0  0  0  0  0  0  0  0  0  0
    0.7500   -1.2990    0.0000 C   0  0  0  0  0  0  0  0  0  0  0  0
   -0.7500   -1.2990    0.0000 C   0  0  0  0  0  0  0  0  0  0  0  0
   -1.5000    0.0000    0.0000 C   0  0  0  0  0  0  0  0  0  0  0  0
   -0.7500    1.2990    0.0000 C   0  0  0  0  0  0  0  0  0  0  0  0
   -1.5000    2.5981    0.0000 F   0  0  0  0  0  0  0  0  0  0  0  0
    0.7500    1.2990    0.0000 C   0  0  0  0  0  0  0  0  0  0  0  0
    1.5000    2.5981    0.0000 O   0  0  0  0  0  0  0  0  0  0  0  0
    0.7500    3.8971    0.0000 C   0  0  0  0  0  0  0  0  0  0  0  0
    1.5000    5.1962    0.0000 C   0  0  0  0  0  0  0  0  0  0  0  0
    0.7500    6.4952    0.0000 C   0  0  0  0  0  0  0  0  0  0  0  0
   -0.7500    6.4952    0.0000 C   0  0  0  0  0  0  0  0  0  0  0  0
   -1.5000    7.7942    0.0000 C   0  0  0  0  0  0  0  0  0  0  0  0
   -2.2500    9.0933    0.0000 N   0  0  0  0  0  0  0  0  0  0  0  0
   -1.5000    5.1962    0.0000 C   0  0  0  0  0  0  0  0  0  0  0  0
   -3.0000    5.1962    0.0000 C   0  0  0  0  0  0  0  0  0  0  0  0
   -4.5000    5.1962    0.0000 F   0  0  0  0  0  0  0  0  0  0  0  0
   -3.0000    6.6962    0.0000 F   0  0  0  0  0  0  0  0  0  0  0  0
   -3.0000    3.6962    0.0000 F   0  0  0  0  0  0  0  0  0  0  0  0
   -0.7500    3.8971    0.0000 C   0  0  0  0  0  0  0  0  0  0  0  0
  1  2  1  0
  2  3  1  0
  3  4  2  0
  4  5  1  0
  5  6  2  0
  6  7  1  0
  7  8  1  0
  7  9  2  0
  9 10  1  0
 10 11  1  0
 11 12  2  0
 12 13  1  0
 13 14  2  0
 14 15  1  0
 15 16  3  0
 14 17  1  0
 17 18  1  0
 18 19  1  0
 18 20  1  0
 18 21  1  0
 17 22  2  0
  9  3  1  0
 22 11  1  0
M  END
>  <assay_chembl_id>  (193) 
CHEMBL987690

>  <assay_description>  (193) 
Antagonist activity at human androgen receptor expressed in human MDA-MB-231 cells assessed as inhibition of DHT-induced response

>  <parent_molecule_chembl_id>  (193) 
CHEMBL469983

>  <canonical_smiles>  (193) 
COc1cccc(F)c1Oc1ccc(C#N)c(C(F)(F)F)c1

>  <standard_type>  (193) 
IC50

>  <standard_relation>  (193) 
=

>  <standard_value>  (193) 
42.0

>  <standard_units>  (193) 
nM

>  <target_pref_name>  (193) 
Androgen Receptor

>  <target_chembl_id>  (193) 
CHEMBL1871

>  <target_organism>  (193) 
Homo sapiens

>  <pchembl_median>  (193) 
7.18

$$$$
CHEMBL490955
     RDKit          2D

 17 18  0  0  0  0  0  0  0  0999 V2000
    3.0000    0.0000    0.0000 C   0  0  0  0  0  0  0  0  0  0  0  0
    1.5000    0.0000    0.0000 C   0  0  0  0  0  0  0  0  0  0  0  0
    0.7500   -1.2990    0.0000 C   0  0  0  0  0  0  0  0  0  0  0  0
   -0.7500   -1.2990    0.0000 C   0  0  0  0  0  0  0  0  0  0  0  0
   -1.5000    0.0000    0.0000 C   0  0  0  0  0  0  0  0  0  0  0  0
   -0.7500    1.2990    0.0000 C   0  0  0  0  0  0  0  0  0  0  0  0
    0.7500    1.2990    0.0000 C   0  0  0  0  0  0  0  0  0  0  0  0
    1.5000    2.5981    0.0000 O   0  0  0  0  0  0  0  0  0  0  0  0
    0.7500    3.8971    0.0000 C   0  0  0  0  0  0  0  0  0  0  0  0
    1.5000    5.1962    0.0000 C   0  0  0  0  0  0  0  0  0  0  0  0
    0.7500    6.4952    0.0000 C   0  0  0  0  0  0  0  0  0  0  0  0
   -0.7500    6.4952    0.0000 C   0  0  0  0  0  0  0  0  0  0  0  0
   -1.5000    7.7942    0.0000 C   0  0  0  0  0  0  0  0  0  0  0  0
   -2.2500    9.0933    0.0000 N   0  0  0  0  0  0  0  0  0  0  0  0
   -1.5000    5.1962    0.0000 C   0  0  0  0  0  0  0  0  0  0  0  0
   -0.7500    3.8971    0.0000 C   0  0  0  0  0  0  0  0  0  0  0  0
   -1.5000    2.5981    0.0000 Cl  0  0  0  0  0  0  0  0  0  0  0  0
  1  2  1  0
  2  3  2  0
  3  4  1  0
  4  5  2  0
  5  6  1  0
  6  7  2  0
  7  8  1  0
  8  9  1  0
  9 10  2  0
 10 11  1  0
 11 12  2  0
 12 13  1  0
 13 14  3  0
 12 15  1  0
 15 16  2  0
 16 17  1  0
  7  2  1  0
 16  9  1  0
M  END
>  <assay_chembl_id>  (194) 
CHEMBL987690

>  <assay_description>  (194) 
Antagonist activity at human androgen receptor expressed in human MDA-MB-231 cells assessed as inhibition of DHT-induced response

>  <parent_molecule_chembl_id>  (194) 
CHEMBL490955

>  <canonical_smiles>  (194) 
Cc1ccccc1Oc1ccc(C#N)cc1Cl

>  <standard_type>  (194) 
IC50

>  <standard_relation>  (194) 
=

>  <standard_value>  (194) 
46.0

>  <standard_units>  (194) 
nM

>  <target_pref_name>  (194) 
Androgen Receptor

>  <target_chembl_id>  (194) 
CHEMBL1871

>  <target_organism>  (194) 
Homo sapiens

>  <pchembl_median>  (194) 
8.09

$$$$
CHEMBL449804
     RDKit          2D

 22 23  0  0  0  0  0  0  0  0999 V2000
    5.2500   -1.2990    0.0000 C   0  0  0  0  0  0  0  0  0  0  0  0
    3.7500   -1.2990    0.0000 C   0  0  0  0  0  0  0  0  0  0  0  0
    3.0000    0.0000    0.0000 O   0  0  0  0  0  0  0  0  0  0  0  0
    1.5000    0.0000    0.0000 C   0  0  0  0  0  0  0  0  0  0  0  0
    0.7500   -1.2990    0.0000 C   0  0  0  0  0  0  0  0  0  0  0  0
   -0.7500   -1.2990    0.0000 C   0  0  0  0  0  0  0  0  0  0  0  0
   -1.5000    0.0000    0.0000 C   0  0  0  0  0  0  0  0  0  0  0  0
   -0.7500    1.2990    0.0000 C   0  0  0  0  0  0  0  0  0  0  0  0
    0.7500    1.2990    0.0000 C   0  0  0  0  0  0  0  0  0  0  0  0
    1.5000    2.5981    0.0000 O   0  0  0  0  0  0  0  0  0  0  0  0
    0.7500    3.8971    0.0000 C   0  0  0  0  0  0  0  0  0  0  0  0
    1.5000    5.1962    0.0000 C   0  0  0  0  0  0  0  0  0  0  0  0
    0.7500    6.4952    0.0000 C   0  0  0  0  0  0  0  0  0  0  0  0
   -0.7500    6.4952    0.0000 C   0  0  0  0  0  0  0  0  0  0  0  0
   -1.5000    7.7942    0.0000 C   0  0  0  0  0  0  0  0  0  0  0  0
   -2.2500    9.0933    0.0000 N   0  0  0  0  0  0  0  0  0  0  0  0
   -1.5000    5.1962    0.0000 C   0  0  0  0  0  0  0  0  0  0  0  0
   -3.0000    5.1962    0.0000 C   0  0  0  0  0  0  0  0  0  0  0  0
   -4.5000    5.1962    0.0000 F   0  0  0  0  0  0  0  0  0  0  0  0
   -3.0000    3.6962    0.0000 F   0  0  0  0  0  0  0  0  0  0  0  0
   -3.0000    6.6962    0.0000 F   0  0  0  0  0  0  0  0  0  0  0  0
   -0.7500    3.8971    0.0000 C   0  0  0  0  0  0  0  0  0  0  0  0
  1  2  1  0
  2  3  1  0
  3  4  1  0
  4  5  2  0
  5  6  1  0
  6  7  2  0
  7  8  1  0
  8  9  2  0
  9 10  1  0
 10 11  1  0
 11 12  2  0
 12 13  1  0
 13 14  2  0
 14 15  1  0
 15 16  3  0
 14 17  1  0
 17 18  1  0
 18 19  1  0
 18 20  1  0
 18 21  1  0
 17 22  2  0
  9  4  1  0
 22 11  1  0
M  END
>  <assay_chembl_id>  (195) 
CHEMBL987690

>  <assay_description>  (195) 
Antagonist activity at human androgen receptor expressed in human MDA-MB-231 cells assessed as inhibition of DHT-induced response

>  <parent_molecule_chembl_id>  (195) 
CHEMBL449804

>  <canonical_smiles>  (195) 
CCOc1ccccc1Oc1ccc(C#N)c(C(F)(F)F)c1

>  <standard_type>  (195) 
IC50

>  <standard_relation>  (195) 
=

>  <standard_value>  (195) 
47.0

>  <standard_units>  (195) 
nM

>  <target_pref_name>  (195) 
Androgen Receptor

>  <target_chembl_id>  (195) 
CHEMBL1871

>  <target_organism>  (195) 
Homo sapiens

>  <pchembl_median>  (195) 
7.67

$$$$
CHEMBL469334
     RDKit          2D

 22 23  0  0  0  0  0  0  0  0999 V2000
    3.7500   -1.2990    0.0000 C   0  0  0  0  0  0  0  0  0  0  0  0
    3.0000    0.0000    0.0000 O   0  0  0  0  0  0  0  0  0  0  0  0
    1.5000    0.0000    0.0000 C   0  0  0  0  0  0  0  0  0  0  0  0
    0.7500   -1.2990    0.0000 C   0  0  0  0  0  0  0  0  0  0  0  0
   -0.7500   -1.2990    0.0000 C   0  0  0  0  0  0  0  0  0  0  0  0
   -1.5000   -2.5981    0.0000 C   0  0  0  0  0  0  0  0  0  0  0  0
   -1.5000    0.0000    0.0000 C   0  0  0  0  0  0  0  0  0  0  0  0
   -0.7500    1.2990    0.0000 C   0  0  0  0  0  0  0  0  0  0  0  0
    0.7500    1.2990    0.0000 C   0  0  0  0  0  0  0  0  0  0  0  0
    1.5000    2.5981    0.0000 O   0  0  0  0  0  0  0  0  0  0  0  0
    0.7500    3.8971    0.0000 C   0  0  0  0  0  0  0  0  0  0  0  0
    1.5000    5.1962    0.0000 C   0  0  0  0  0  0  0  0  0  0  0  0
    0.7500    6.4952    0.0000 C   0  0  0  0  0  0  0  0  0  0  0  0
   -0.7500    6.4952    0.0000 C   0  0  0  0  0  0  0  0  0  0  0  0
   -1.5000    7.7942    0.0000 C   0  0  0  0  0  0  0  0  0  0  0  0
   -2.2500    9.0933    0.0000 N   0  0  0  0  0  0  0  0  0  0  0  0
   -1.5000    5.1962    0.0000 C   0  0  0  0  0  0  0  0  0  0  0  0
   -3.0000    5.1962    0.0000 C   0  0  0  0  0  0  0  0  0  0  0  0
   -4.5000    5.1962    0.0000 F   0  0  0  0  0  0  0  0  0  0  0  0
   -3.0000    3.6962    0.0000 F   0  0  0  0  0  0  0  0  0  0  0  0
   -3.0000    6.6962    0.0000 F   0  0  0  0  0  0  0  0  0  0  0  0
   -0.7500    3.8971    0.0000 C   0  0  0  0  0  0  0  0  0  0  0  0
  1  2  1  0
  2  3  1  0
  3  4  2  0
  4  5  1  0
  5  6  1  0
  5  7  2  0
  7  8  1  0
  8  9  2  0
  9 10  1  0
 10 11  1  0
 11 12  2  0
 12 13  1  0
 13 14  2  0
 14 15  1  0
 15 16  3  0
 14 17  1  0
 17 18  1  0
 18 19  1  0
 18 20  1  0
 18 21  1  0
 17 22  2  0
  9  3  1  0
 22 11  1  0
M  END
>  <assay_chembl_id>  (196) 
CHEMBL987689

>  <assay_description>  (196) 
Displacement of [3H]DHT from human cloned androgen receptor expressed in insect Sf9 cell system

>  <parent_molecule_chembl_id>  (196) 
CHEMBL469334

>  <canonical_smiles>  (196) 
COc1cc(C)ccc1Oc1ccc(C#N)c(C(F)(F)F)c1

>  <standard_type>  (196) 
IC50

>  <standard_relation>  (196) 
=

>  <standard_value>  (196) 
69.0

>  <standard_units>  (196) 
nM

>  <target_pref_name>  (196) 
Androgen Receptor

>  <target_chembl_id>  (196) 
CHEMBL1871

>  <target_organism>  (196) 
Homo sapiens

>  <pchembl_median>  (196) 
7.875

$$$$
CHEMBL469380
     RDKit          2D

 21 22  0  0  0  0  0  0  0  0999 V2000
    3.7500   -1.2990    0.0000 C   0  0  0  0  0  0  0  0  0  0  0  0
    3.0000    0.0000    0.0000 O   0  0  0  0  0  0  0  0  0  0  0  0
    1.5000    0.0000    0.0000 C   0  0  0  0  0  0  0  0  0  0  0  0
    0.7500   -1.2990    0.0000 C   0  0  0  0  0  0  0  0  0  0  0  0
   -0.7500   -1.2990    0.0000 C   0  0  0  0  0  0  0  0  0  0  0  0
   -1.5000    0.0000    0.0000 C   0  0  0  0  0  0  0  0  0  0  0  0
   -0.7500    1.2990    0.0000 C   0  0  0  0  0  0  0  0  0  0  0  0
    0.7500    1.2990    0.0000 C   0  0  0  0  0  0  0  0  0  0  0  0
    1.5000    2.5981    0.0000 O   0  0  0  0  0  0  0  0  0  0  0  0
    0.7500    3.8971    0.0000 C   0  0  0  0  0  0  0  0  0  0  0  0
    1.5000    5.1962    0.0000 C   0  0  0  0  0  0  0  0  0  0  0  0
    0.7500    6.4952    0.0000 C   0  0  0  0  0  0  0  0  0  0  0  0
   -0.7500    6.4952    0.0000 C   0  0  0  0  0  0  0  0  0  0  0  0
   -1.5000    7.7942    0.0000 C   0  0  0  0  0  0  0  0  0  0  0  0
   -2.2500    9.0933    0.0000 N   0  0  0  0  0  0  0  0  0  0  0  0
   -1.5000    5.1962    0.0000 C   0  0  0  0  0  0  0  0  0  0  0  0
   -3.0000    5.1962    0.0000 C   0  0  0  0  0  0  0  0  0  0  0  0
   -4.5000    5.1962    0.0000 F   0  0  0  0  0  0  0  0  0  0  0  0
   -3.0000    3.6962    0.0000 F   0  0  0  0  0  0  0  0  0  0  0  0
   -3.0000    6.6962    0.0000 F   0  0  0  0  0  0  0  0  0  0  0  0
   -0.7500    3.8971    0.0000 C   0  0  0  0  0  0  0  0  0  0  0  0
  1  2  1  0
  2  3  1  0
  3  4  2  0
  4  5  1  0
  5  6  2  0
  6  7  1  0
  7  8  2  0
  8  9  1  0
  9 10  1  0
 10 11  2  0
 11 12  1  0
 12 13  2  0
 13 14  1  0
 14 15  3  0
 13 16  1  0
 16 17  1  0
 17 18  1  0
 17 19  1  0
 17 20  1  0
 16 21  2  0
  8  3  1  0
 21 10  1  0
M  END
>  <assay_chembl_id>  (197) 
CHEMBL987690

>  <assay_description>  (197) 
Antagonist activity at human androgen receptor expressed in human MDA-MB-231 cells assessed as inhibition of DHT-induced response

>  <parent_molecule_chembl_id>  (197) 
CHEMBL469380

>  <canonical_smiles>  (197) 
COc1ccccc1Oc1ccc(C#N)c(C(F)(F)F)c1

>  <standard_type>  (197) 
IC50

>  <standard_relation>  (197) 
=

>  <standard_value>  (197) 
72.0

>  <standard_units>  (197) 
nM

>  <target_pref_name>  (197) 
Androgen Receptor

>  <target_chembl_id>  (197) 
CHEMBL1871

>  <target_organism>  (197) 
Homo sapiens

>  <pchembl_median>  (197) 
7.085

$$$$
CHEMBL512837
     RDKit          2D

 22 23  0  0  0  0  0  0  0  0999 V2000
    3.7500   -1.2990    0.0000 C   0  0  0  0  0  0  0  0  0  0  0  0
    3.0000    0.0000    0.0000 O   0  0  0  0  0  0  0  0  0  0  0  0
    1.5000    0.0000    0.0000 C   0  0  0  0  0  0  0  0  0  0  0  0
    0.7500   -1.2990    0.0000 C   0  0  0  0  0  0  0  0  0  0  0  0
   -0.7500   -1.2990    0.0000 C   0  0  0  0  0  0  0  0  0  0  0  0
   -1.5000    0.0000    0.0000 C   0  0  0  0  0  0  0  0  0  0  0  0
   -3.0000    0.0000    0.0000 C   0  0  0  0  0  0  0  0  0  0  0  0
   -0.7500    1.2990    0.0000 C   0  0  0  0  0  0  0  0  0  0  0  0
    0.7500    1.2990    0.0000 C   0  0  0  0  0  0  0  0  0  0  0  0
    1.5000    2.5981    0.0000 O   0  0  0  0  0  0  0  0  0  0  0  0
    0.7500    3.8971    0.0000 C   0  0  0  0  0  0  0  0  0  0  0  0
    1.5000    5.1962    0.0000 C   0  0  0  0  0  0  0  0  0  0  0  0
    0.7500    6.4952    0.0000 C   0  0  0  0  0  0  0  0  0  0  0  0
   -0.7500    6.4952    0.0000 C   0  0  0  0  0  0  0  0  0  0  0  0
   -1.5000    7.7942    0.0000 C   0  0  0  0  0  0  0  0  0  0  0  0
   -2.2500    9.0933    0.0000 N   0  0  0  0  0  0  0  0  0  0  0  0
   -1.5000    5.1962    0.0000 C   0  0  0  0  0  0  0  0  0  0  0  0
   -3.0000    5.1962    0.0000 C   0  0  0  0  0  0  0  0  0  0  0  0
   -4.5000    5.1962    0.0000 F   0  0  0  0  0  0  0  0  0  0  0  0
   -3.0000    3.6962    0.0000 F   0  0  0  0  0  0  0  0  0  0  0  0
   -3.0000    6.6962    0.0000 F   0  0  0  0  0  0  0  0  0  0  0  0
   -0.7500    3.8971    0.0000 C   0  0  0  0  0  0  0  0  0  0  0  0
  1  2  1  0
  2  3  1  0
  3  4  2  0
  4  5  1  0
  5  6  2  0
  6  7  1  0
  6  8  1  0
  8  9  2  0
  9 10  1  0
 10 11  1  0
 11 12  2  0
 12 13  1  0
 13 14  2  0
 14 15  1  0
 15 16  3  0
 14 17  1  0
 17 18  1  0
 18 19  1  0
 18 20  1  0
 18 21  1  0
 17 22  2  0
  9  3  1  0
 22 11  1  0
M  END
>  <assay_chembl_id>  (198) 
CHEMBL987689

>  <assay_description>  (198) 
Displacement of [3H]DHT from human cloned androgen receptor expressed in insect Sf9 cell system

>  <parent_molecule_chembl_id>  (198) 
CHEMBL512837

>  <canonical_smiles>  (198) 
COc1ccc(C)cc1Oc1ccc(C#N)c(C(F)(F)F)c1

>  <standard_type>  (198) 
IC50

>  <standard_relation>  (198) 
=

>  <standard_value>  (198) 
103.0

>  <standard_units>  (198) 
nM

>  <target_pref_name>  (198) 
Androgen Receptor

>  <target_chembl_id>  (198) 
CHEMBL1871

>  <target_organism>  (198) 
Homo sapiens

>  <pchembl_median>  (198) 
7.18

$$$$
CHEMBL470629
     RDKit          2D

 20 21  0  0  0  0  0  0  0  0999 V2000
    4.5000    0.0000    0.0000 N   0  0  0  0  0  0  0  0  0  0  0  0
    3.0000    0.0000    0.0000 C   0  0  0  0  0  0  0  0  0  0  0  0
    1.5000    0.0000    0.0000 C   0  0  0  0  0  0  0  0  0  0  0  0
    0.7500   -1.2990    0.0000 C   0  0  0  0  0  0  0  0  0  0  0  0
   -0.7500   -1.2990    0.0000 C   0  0  0  0  0  0  0  0  0  0  0  0
   -1.5000    0.0000    0.0000 C   0  0  0  0  0  0  0  0  0  0  0  0
   -3.0000    0.0000    0.0000 O   0  0  0  0  0  0  0  0  0  0  0  0
   -3.7500    1.2990    0.0000 C   0  0  0  0  0  0  0  0  0  0  0  0
   -3.0000    2.5981    0.0000 C   0  0  0  0  0  0  0  0  0  0  0  0
   -3.7500    3.8971    0.0000 C   0  0  0  0  0  0  0  0  0  0  0  0
   -5.2500    3.8971    0.0000 C   0  0  0  0  0  0  0  0  0  0  0  0
   -6.0000    2.5981    0.0000 C   0  0  0  0  0  0  0  0  0  0  0  0
   -5.2500    1.2990    0.0000 C   0  0  0  0  0  0  0  0  0  0  0  0
   -6.0000    0.0000    0.0000 Cl  0  0  0  0  0  0  0  0  0  0  0  0
   -0.7500    1.2990    0.0000 C   0  0  0  0  0  0  0  0  0  0  0  0
    0.7500    1.2990    0.0000 C   0  0  0  0  0  0  0  0  0  0  0  0
    1.5000    2.5981    0.0000 C   0  0  0  0  0  0  0  0  0  0  0  0
    2.2500    3.8971    0.0000 F   0  0  0  0  0  0  0  0  0  0  0  0
    0.2010    3.3481    0.0000 F   0  0  0  0  0  0  0  0  0  0  0  0
    2.7990    1.8481    0.0000 F   0  0  0  0  0  0  0  0  0  0  0  0
  1  2  3  0
  2  3  1  0
  3  4  2  0
  4  5  1  0
  5  6  2  0
  6  7  1  0
  7  8  1  0
  8  9  2  0
  9 10  1  0
 10 11  2  0
 11 12  1  0
 12 13  2  0
 13 14  1  0
  6 15  1  0
 15 16  2  0
 16 17  1  0
 17 18  1  0
 17 19  1  0
 17 20  1  0
 16  3  1  0
 13  8  1  0
M  END
>  <assay_chembl_id>  (199) 
CHEMBL987689

>  <assay_description>  (199) 
Displacement of [3H]DHT from human cloned androgen receptor expressed in insect Sf9 cell system

>  <parent_molecule_chembl_id>  (199) 
CHEMBL470629

>  <canonical_smiles>  (199) 
N#Cc1ccc(Oc2ccccc2Cl)cc1C(F)(F)F

>  <standard_type>  (199) 
IC50

>  <standard_relation>  (199) 
=

>  <standard_value>  (199) 
123.0

>  <standard_units>  (199) 
nM

>  <target_pref_name>  (199) 
Androgen Receptor

>  <target_chembl_id>  (199) 
CHEMBL1871

>  <target_organism>  (199) 
Homo sapiens

>  <pchembl_median>  (199) 
5.645

$$$$
CHEMBL469982
     RDKit          2D

 21 22  0  0  0  0  0  0  0  0999 V2000
    3.0000    0.0000    0.0000 C   0  0  0  0  0  0  0  0  0  0  0  0
    1.5000    0.0000    0.0000 C   0  0  0  0  0  0  0  0  0  0  0  0
    0.7500   -1.2990    0.0000 C   0  0  0  0  0  0  0  0  0  0  0  0
   -0.7500   -1.2990    0.0000 C   0  0  0  0  0  0  0  0  0  0  0  0
   -1.5000    0.0000    0.0000 C   0  0  0  0  0  0  0  0  0  0  0  0
   -3.0000    0.0000    0.0000 O   0  0  0  0  0  0  0  0  0  0  0  0
   -0.7500    1.2990    0.0000 C   0  0  0  0  0  0  0  0  0  0  0  0
   -1.5000    2.5981    0.0000 O   0  0  0  0  0  0  0  0  0  0  0  0
   -0.7500    3.8971    0.0000 C   0  0  0  0  0  0  0  0  0  0  0  0
    0.7500    3.8971    0.0000 C   0  0  0  0  0  0  0  0  0  0  0  0
    1.5000    5.1962    0.0000 C   0  0  0  0  0  0  0  0  0  0  0  0
    0.7500    6.4952    0.0000 C   0  0  0  0  0  0  0  0  0  0  0  0
    1.5000    7.7942    0.0000 C   0  0  0  0  0  0  0  0  0  0  0  0
    2.2500    9.0933    0.0000 N   0  0  0  0  0  0  0  0  0  0  0  0
   -0.7500    6.4952    0.0000 C   0  0  0  0  0  0  0  0  0  0  0  0
   -1.5000    7.7942    0.0000 C   0  0  0  0  0  0  0  0  0  0  0  0
   -2.2500    9.0933    0.0000 F   0  0  0  0  0  0  0  0  0  0  0  0
   -2.7990    7.0442    0.0000 F   0  0  0  0  0  0  0  0  0  0  0  0
   -0.2010    8.5442    0.0000 F   0  0  0  0  0  0  0  0  0  0  0  0
   -1.5000    5.1962    0.0000 C   0  0  0  0  0  0  0  0  0  0  0  0
    0.7500    1.2990    0.0000 C   0  0  0  0  0  0  0  0  0  0  0  0
  1  2  1  0
  2  3  2  0
  3  4  1  0
  4  5  2  0
  5  6  1  0
  5  7  1  0
  7  8  1  0
  8  9  1  0
  9 10  2  0
 10 11  1  0
 11 12  2  0
 12 13  1  0
 13 14  3  0
 12 15  1  0
 15 16  1  0
 16 17  1  0
 16 18  1  0
 16 19  1  0
 15 20  2  0
  7 21  2  0
 21  2  1  0
 20  9  1  0
M  END
>  <assay_chembl_id>  (200) 
CHEMBL987689

>  <assay_description>  (200) 
Displacement of [3H]DHT from human cloned androgen receptor expressed in insect Sf9 cell system

>  <parent_molecule_chembl_id>  (200) 
CHEMBL469982

>  <canonical_smiles>  (200) 
Cc1ccc(O)c(Oc2ccc(C#N)c(C(F)(F)F)c2)c1

>  <standard_type>  (200) 
IC50

>  <standard_relation>  (200) 
=

>  <standard_value>  (200) 
127.0

>  <standard_units>  (200) 
nM

>  <target_pref_name>  (200) 
Androgen Receptor

>  <target_chembl_id>  (200) 
CHEMBL1871

>  <target_organism>  (200) 
Homo sapiens

>  <pchembl_median>  (200) 
5.8

$$$$
CHEMBL469333
     RDKit          2D

 23 24  0  0  0  0  0  0  0  0999 V2000
    3.7500   -1.2990    0.0000 C   0  0  0  0  0  0  0  0  0  0  0  0
    3.0000    0.0000    0.0000 O   0  0  0  0  0  0  0  0  0  0  0  0
    1.5000    0.0000    0.0000 C   0  0  0  0  0  0  0  0  0  0  0  0
    0.7500   -1.2990    0.0000 C   0  0  0  0  0  0  0  0  0  0  0  0
   -0.7500   -1.2990    0.0000 C   0  0  0  0  0  0  0  0  0  0  0  0
   -1.5000    0.0000    0.0000 C   0  0  0  0  0  0  0  0  0  0  0  0
   -0.7500    1.2990    0.0000 C   0  0  0  0  0  0  0  0  0  0  0  0
   -1.5000    2.5981    0.0000 O   0  0  0  0  0  0  0  0  0  0  0  0
   -0.7500    3.8971    0.0000 C   0  0  0  0  0  0  0  0  0  0  0  0
    0.7500    1.2990    0.0000 C   0  0  0  0  0  0  0  0  0  0  0  0
    1.5000    2.5981    0.0000 O   0  0  0  0  0  0  0  0  0  0  0  0
    3.0000    2.5981    0.0000 C   0  0  0  0  0  0  0  0  0  0  0  0
    3.7500    1.2990    0.0000 C   0  0  0  0  0  0  0  0  0  0  0  0
    5.2500    1.2990    0.0000 C   0  0  0  0  0  0  0  0  0  0  0  0
    6.0000    2.5981    0.0000 C   0  0  0  0  0  0  0  0  0  0  0  0
    7.5000    2.5981    0.0000 C   0  0  0  0  0  0  0  0  0  0  0  0
    9.0000    2.5981    0.0000 N   0  0  0  0  0  0  0  0  0  0  0  0
    5.2500    3.8971    0.0000 C   0  0  0  0  0  0  0  0  0  0  0  0
    6.0000    5.1962    0.0000 C   0  0  0  0  0  0  0  0  0  0  0  0
    6.7500    6.4952    0.0000 F   0  0  0  0  0  0  0  0  0  0  0  0
    4.7010    5.9462    0.0000 F   0  0  0  0  0  0  0  0  0  0  0  0
    7.2990    4.4462    0.0000 F   0  0  0  0  0  0  0  0  0  0  0  0
    3.7500    3.8971    0.0000 C   0  0  0  0  0  0  0  0  0  0  0  0
  1  2  1  0
  2  3  1  0
  3  4  2  0
  4  5  1  0
  5  6  2  0
  6  7  1  0
  7  8  1  0
  8  9  1  0
  7 10  2  0
 10 11  1  0
 11 12  1  0
 12 13  2  0
 13 14  1  0
 14 15  2  0
 15 16  1  0
 16 17  3  0
 15 18  1  0
 18 19  1  0
 19 20  1  0
 19 21  1  0
 19 22  1  0
 18 23  2  0
 10  3  1  0
 23 12  1  0
M  END
>  <assay_chembl_id>  (201) 
CHEMBL987689

>  <assay_description>  (201) 
Displacement of [3H]DHT from human cloned androgen receptor expressed in insect Sf9 cell system

>  <parent_molecule_chembl_id>  (201) 
CHEMBL469333

>  <canonical_smiles>  (201) 
COc1cccc(OC)c1Oc1ccc(C#N)c(C(F)(F)F)c1

>  <standard_type>  (201) 
IC50

>  <standard_relation>  (201) 
=

>  <standard_value>  (201) 
157.0

>  <standard_units>  (201) 
nM

>  <target_pref_name>  (201) 
Androgen Receptor

>  <target_chembl_id>  (201) 
CHEMBL1871

>  <target_organism>  (201) 
Homo sapiens

>  <pchembl_median>  (201) 
7.475

$$$$
CHEMBL513768
     RDKit          2D

 22 23  0  0  0  0  0  0  0  0999 V2000
    3.0000    0.0000    0.0000 C   0  0  0  0  0  0  0  0  0  0  0  0
    1.5000    0.0000    0.0000 C   0  0  0  0  0  0  0  0  0  0  0  0
    0.7500   -1.2990    0.0000 C   0  0  0  0  0  0  0  0  0  0  0  0
   -0.7500   -1.2990    0.0000 C   0  0  0  0  0  0  0  0  0  0  0  0
   -1.5000   -2.5981    0.0000 C   0  0  0  0  0  0  0  0  0  0  0  0
   -1.5000    0.0000    0.0000 C   0  0  0  0  0  0  0  0  0  0  0  0
   -3.0000    0.0000    0.0000 O   0  0  0  0  0  0  0  0  0  0  0  0
   -3.7500    1.2990    0.0000 C   0  0  0  0  0  0  0  0  0  0  0  0
   -3.0000    2.5981    0.0000 C   0  0  0  0  0  0  0  0  0  0  0  0
   -3.7500    3.8971    0.0000 C   0  0  0  0  0  0  0  0  0  0  0  0
   -5.2500    3.8971    0.0000 C   0  0  0  0  0  0  0  0  0  0  0  0
   -6.0000    5.1962    0.0000 C   0  0  0  0  0  0  0  0  0  0  0  0
   -6.7500    6.4952    0.0000 N   0  0  0  0  0  0  0  0  0  0  0  0
   -6.0000    2.5981    0.0000 C   0  0  0  0  0  0  0  0  0  0  0  0
   -7.5000    2.5981    0.0000 C   0  0  0  0  0  0  0  0  0  0  0  0
   -9.0000    2.5981    0.0000 F   0  0  0  0  0  0  0  0  0  0  0  0
   -7.5000    1.0981    0.0000 F   0  0  0  0  0  0  0  0  0  0  0  0
   -7.5000    4.0981    0.0000 F   0  0  0  0  0  0  0  0  0  0  0  0
   -5.2500    1.2990    0.0000 C   0  0  0  0  0  0  0  0  0  0  0  0
   -0.7500    1.2990    0.0000 C   0  0  0  0  0  0  0  0  0  0  0  0
   -1.5000    2.5981    0.0000 C   0  0  0  0  0  0  0  0  0  0  0  0
    0.7500    1.2990    0.0000 C   0  0  0  0  0  0  0  0  0  0  0  0
  1  2  1  0
  2  3  2  0
  3  4  1  0
  4  5  1  0
  4  6  2  0
  6  7  1  0
  7  8  1  0
  8  9  2  0
  9 10  1  0
 10 11  2  0
 11 12  1  0
 12 13  3  0
 11 14  1  0
 14 15  1  0
 15 16  1  0
 15 17  1  0
 15 18  1  0
 14 19  2  0
  6 20  1  0
 20 21  1  0
 20 22  2  0
 22  2  1  0
 19  8  1  0
M  END
>  <assay_chembl_id>  (202) 
CHEMBL987689

>  <assay_description>  (202) 
Displacement of [3H]DHT from human cloned androgen receptor expressed in insect Sf9 cell system

>  <parent_molecule_chembl_id>  (202) 
CHEMBL513768

>  <canonical_smiles>  (202) 
Cc1cc(C)c(Oc2ccc(C#N)c(C(F)(F)F)c2)c(C)c1

>  <standard_type>  (202) 
IC50

>  <standard_relation>  (202) 
=

>  <standard_value>  (202) 
198.0

>  <standard_units>  (202) 
nM

>  <target_pref_name>  (202) 
Androgen Receptor

>  <target_chembl_id>  (202) 
CHEMBL1871

>  <target_organism>  (202) 
Homo sapiens

>  <pchembl_median>  (202) 
6.77

$$$$
CHEMBL469602
     RDKit          2D

 22 23  0  0  0  0  0  0  0  0999 V2000
    5.2500   -1.2990    0.0000 C   0  0  0  0  0  0  0  0  0  0  0  0
    3.7500   -1.2990    0.0000 C   0  0  0  0  0  0  0  0  0  0  0  0
    3.0000    0.0000    0.0000 C   0  0  0  0  0  0  0  0  0  0  0  0
    1.5000    0.0000    0.0000 C   0  0  0  0  0  0  0  0  0  0  0  0
    0.7500   -1.2990    0.0000 C   0  0  0  0  0  0  0  0  0  0  0  0
   -0.7500   -1.2990    0.0000 C   0  0  0  0  0  0  0  0  0  0  0  0
   -1.5000    0.0000    0.0000 C   0  0  0  0  0  0  0  0  0  0  0  0
   -0.7500    1.2990    0.0000 C   0  0  0  0  0  0  0  0  0  0  0  0
    0.7500    1.2990    0.0000 C   0  0  0  0  0  0  0  0  0  0  0  0
    1.5000    2.5981    0.0000 O   0  0  0  0  0  0  0  0  0  0  0  0
    0.7500    3.8971    0.0000 C   0  0  0  0  0  0  0  0  0  0  0  0
    1.5000    5.1962    0.0000 C   0  0  0  0  0  0  0  0  0  0  0  0
    0.7500    6.4952    0.0000 C   0  0  0  0  0  0  0  0  0  0  0  0
   -0.7500    6.4952    0.0000 C   0  0  0  0  0  0  0  0  0  0  0  0
   -1.5000    7.7942    0.0000 C   0  0  0  0  0  0  0  0  0  0  0  0
   -2.2500    9.0933    0.0000 N   0  0  0  0  0  0  0  0  0  0  0  0
   -1.5000    5.1962    0.0000 C   0  0  0  0  0  0  0  0  0  0  0  0
   -3.0000    5.1962    0.0000 C   0  0  0  0  0  0  0  0  0  0  0  0
   -4.5000    5.1962    0.0000 F   0  0  0  0  0  0  0  0  0  0  0  0
   -3.0000    3.6962    0.0000 F   0  0  0  0  0  0  0  0  0  0  0  0
   -3.0000    6.6962    0.0000 F   0  0  0  0  0  0  0  0  0  0  0  0
   -0.7500    3.8971    0.0000 C   0  0  0  0  0  0  0  0  0  0  0  0
  1  2  1  0
  2  3  1  0
  3  4  1  0
  4  5  2  0
  5  6  1  0
  6  7  2  0
  7  8  1  0
  8  9  2  0
  9 10  1  0
 10 11  1  0
 11 12  2  0
 12 13  1  0
 13 14  2  0
 14 15  1  0
 15 16  3  0
 14 17  1  0
 17 18  1  0
 18 19  1  0
 18 20  1  0
 18 21  1  0
 17 22  2  0
  9  4  1  0
 22 11  1  0
M  END
>  <assay_chembl_id>  (203) 
CHEMBL987689

>  <assay_description>  (203) 
Displacement of [3H]DHT from human cloned androgen receptor expressed in insect Sf9 cell system

>  <parent_molecule_chembl_id>  (203) 
CHEMBL469602

>  <canonical_smiles>  (203) 
CCCc1ccccc1Oc1ccc(C#N)c(C(F)(F)F)c1

>  <standard_type>  (203) 
IC50

>  <standard_relation>  (203) 
=

>  <standard_value>  (203) 
202.0

>  <standard_units>  (203) 
nM

>  <target_pref_name>  (203) 
Androgen Receptor

>  <target_chembl_id>  (203) 
CHEMBL1871

>  <target_organism>  (203) 
Homo sapiens

>  <pchembl_median>  (203) 
5.565

$$$$
CHEMBL451153
     RDKit          2D

 23 24  0  0  0  0  0  0  0  0999 V2000
    3.7500   -1.2990    0.0000 C   0  0  0  0  0  0  0  0  0  0  0  0
    3.0000    0.0000    0.0000 O   0  0  0  0  0  0  0  0  0  0  0  0
    1.5000    0.0000    0.0000 C   0  0  0  0  0  0  0  0  0  0  0  0
    0.7500   -1.2990    0.0000 C   0  0  0  0  0  0  0  0  0  0  0  0
   -0.7500   -1.2990    0.0000 C   0  0  0  0  0  0  0  0  0  0  0  0
   -1.5000    0.0000    0.0000 C   0  0  0  0  0  0  0  0  0  0  0  0
   -3.0000    0.0000    0.0000 C   0  0  0  0  0  0  0  0  0  0  0  0
   -3.7500    1.2990    0.0000 O   0  0  0  0  0  0  0  0  0  0  0  0
   -0.7500    1.2990    0.0000 C   0  0  0  0  0  0  0  0  0  0  0  0
    0.7500    1.2990    0.0000 C   0  0  0  0  0  0  0  0  0  0  0  0
    1.5000    2.5981    0.0000 O   0  0  0  0  0  0  0  0  0  0  0  0
    0.7500    3.8971    0.0000 C   0  0  0  0  0  0  0  0  0  0  0  0
    1.5000    5.1962    0.0000 C   0  0  0  0  0  0  0  0  0  0  0  0
    0.7500    6.4952    0.0000 C   0  0  0  0  0  0  0  0  0  0  0  0
   -0.7500    6.4952    0.0000 C   0  0  0  0  0  0  0  0  0  0  0  0
   -1.5000    7.7942    0.0000 C   0  0  0  0  0  0  0  0  0  0  0  0
   -2.2500    9.0933    0.0000 N   0  0  0  0  0  0  0  0  0  0  0  0
   -1.5000    5.1962    0.0000 C   0  0  0  0  0  0  0  0  0  0  0  0
   -3.0000    5.1962    0.0000 C   0  0  0  0  0  0  0  0  0  0  0  0
   -4.5000    5.1962    0.0000 F   0  0  0  0  0  0  0  0  0  0  0  0
   -3.0000    3.6962    0.0000 F   0  0  0  0  0  0  0  0  0  0  0  0
   -3.0000    6.6962    0.0000 F   0  0  0  0  0  0  0  0  0  0  0  0
   -0.7500    3.8971    0.0000 C   0  0  0  0  0  0  0  0  0  0  0  0
  1  2  1  0
  2  3  1  0
  3  4  2  0
  4  5  1  0
  5  6  2  0
  6  7  1  0
  7  8  1  0
  6  9  1  0
  9 10  2  0
 10 11  1  0
 11 12  1  0
 12 13  2  0
 13 14  1  0
 14 15  2  0
 15 16  1  0
 16 17  3  0
 15 18  1  0
 18 19  1  0
 19 20  1  0
 19 21  1  0
 19 22  1  0
 18 23  2  0
 10  3  1  0
 23 12  1  0
M  END
>  <assay_chembl_id>  (204) 
CHEMBL987689

>  <assay_description>  (204) 
Displacement of [3H]DHT from human cloned androgen receptor expressed in insect Sf9 cell system

>  <parent_molecule_chembl_id>  (204) 
CHEMBL451153

>  <canonical_smiles>  (204) 
COc1ccc(CO)cc1Oc1ccc(C#N)c(C(F)(F)F)c1

>  <standard_type>  (204) 
IC50

>  <standard_relation>  (204) 
=

>  <standard_value>  (204) 
216.0

>  <standard_units>  (204) 
nM

>  <target_pref_name>  (204) 
Androgen Receptor

>  <target_chembl_id>  (204) 
CHEMBL1871

>  <target_organism>  (204) 
Homo sapiens

>  <pchembl_median>  (204) 
5.925

$$$$
CHEMBL470395
     RDKit          2D

 22 23  0  0  0  0  0  0  0  0999 V2000
    5.2500   -1.2990    0.0000 C   0  0  0  0  0  0  0  0  0  0  0  0
    3.7500   -1.2990    0.0000 C   0  0  0  0  0  0  0  0  0  0  0  0
    3.0000    0.0000    0.0000 S   0  0  0  0  0  0  0  0  0  0  0  0
    1.5000    0.0000    0.0000 C   0  0  0  0  0  0  0  0  0  0  0  0
    0.7500   -1.2990    0.0000 C   0  0  0  0  0  0  0  0  0  0  0  0
   -0.7500   -1.2990    0.0000 C   0  0  0  0  0  0  0  0  0  0  0  0
   -1.5000    0.0000    0.0000 C   0  0  0  0  0  0  0  0  0  0  0  0
   -0.7500    1.2990    0.0000 C   0  0  0  0  0  0  0  0  0  0  0  0
    0.7500    1.2990    0.0000 C   0  0  0  0  0  0  0  0  0  0  0  0
    1.5000    2.5981    0.0000 O   0  0  0  0  0  0  0  0  0  0  0  0
    3.0000    2.5981    0.0000 C   0  0  0  0  0  0  0  0  0  0  0  0
    3.7500    1.2990    0.0000 C   0  0  0  0  0  0  0  0  0  0  0  0
    5.2500    1.2990    0.0000 C   0  0  0  0  0  0  0  0  0  0  0  0
    6.0000    2.5981    0.0000 C   0  0  0  0  0  0  0  0  0  0  0  0
    7.5000    2.5981    0.0000 C   0  0  0  0  0  0  0  0  0  0  0  0
    9.0000    2.5981    0.0000 N   0  0  0  0  0  0  0  0  0  0  0  0
    5.2500    3.8971    0.0000 C   0  0  0  0  0  0  0  0  0  0  0  0
    6.0000    5.1962    0.0000 C   0  0  0  0  0  0  0  0  0  0  0  0
    6.7500    6.4952    0.0000 F   0  0  0  0  0  0  0  0  0  0  0  0
    4.7010    5.9462    0.0000 F   0  0  0  0  0  0  0  0  0  0  0  0
    7.2990    4.4462    0.0000 F   0  0  0  0  0  0  0  0  0  0  0  0
    3.7500    3.8971    0.0000 C   0  0  0  0  0  0  0  0  0  0  0  0
  1  2  1  0
  2  3  1  0
  3  4  1  0
  4  5  2  0
  5  6  1  0
  6  7  2  0
  7  8  1  0
  8  9  2  0
  9 10  1  0
 10 11  1  0
 11 12  2  0
 12 13  1  0
 13 14  2  0
 14 15  1  0
 15 16  3  0
 14 17  1  0
 17 18  1  0
 18 19  1  0
 18 20  1  0
 18 21  1  0
 17 22  2  0
  9  4  1  0
 22 11  1  0
M  END
>  <assay_chembl_id>  (205) 
CHEMBL987689

>  <assay_description>  (205) 
Displacement of [3H]DHT from human cloned androgen receptor expressed in insect Sf9 cell system

>  <parent_molecule_chembl_id>  (205) 
CHEMBL470395

>  <canonical_smiles>  (205) 
CCSc1ccccc1Oc1ccc(C#N)c(C(F)(F)F)c1

>  <standard_type>  (205) 
IC50

>  <standard_relation>  (205) 
=

>  <standard_value>  (205) 
229.0

>  <standard_units>  (205) 
nM

>  <target_pref_name>  (205) 
Androgen Receptor

>  <target_chembl_id>  (205) 
CHEMBL1871

>  <target_organism>  (205) 
Homo sapiens

>  <pchembl_median>  (205) 
5.82

$$$$
CHEMBL510289
     RDKit          2D

 23 24  0  0  0  0  0  0  0  0999 V2000
    5.2500   -1.2990    0.0000 C   0  0  0  0  0  0  0  0  0  0  0  0
    3.7500   -1.2990    0.0000 C   0  0  0  0  0  0  0  0  0  0  0  0
    3.0000    0.0000    0.0000 O   0  0  0  0  0  0  0  0  0  0  0  0
    1.5000    0.0000    0.0000 C   0  0  0  0  0  0  0  0  0  0  0  0
    0.7500   -1.2990    0.0000 C   0  0  0  0  0  0  0  0  0  0  0  0
   -0.7500   -1.2990    0.0000 C   0  0  0  0  0  0  0  0  0  0  0  0
   -1.5000   -2.5981    0.0000 C   0  0  0  0  0  0  0  0  0  0  0  0
   -1.5000    0.0000    0.0000 C   0  0  0  0  0  0  0  0  0  0  0  0
   -0.7500    1.2990    0.0000 C   0  0  0  0  0  0  0  0  0  0  0  0
    0.7500    1.2990    0.0000 C   0  0  0  0  0  0  0  0  0  0  0  0
    1.5000    2.5981    0.0000 O   0  0  0  0  0  0  0  0  0  0  0  0
    0.7500    3.8971    0.0000 C   0  0  0  0  0  0  0  0  0  0  0  0
    1.5000    5.1962    0.0000 C   0  0  0  0  0  0  0  0  0  0  0  0
    0.7500    6.4952    0.0000 C   0  0  0  0  0  0  0  0  0  0  0  0
   -0.7500    6.4952    0.0000 C   0  0  0  0  0  0  0  0  0  0  0  0
   -1.5000    7.7942    0.0000 C   0  0  0  0  0  0  0  0  0  0  0  0
   -2.2500    9.0933    0.0000 N   0  0  0  0  0  0  0  0  0  0  0  0
   -1.5000    5.1962    0.0000 C   0  0  0  0  0  0  0  0  0  0  0  0
   -3.0000    5.1962    0.0000 C   0  0  0  0  0  0  0  0  0  0  0  0
   -4.5000    5.1962    0.0000 F   0  0  0  0  0  0  0  0  0  0  0  0
   -3.0000    3.6962    0.0000 F   0  0  0  0  0  0  0  0  0  0  0  0
   -3.0000    6.6962    0.0000 F   0  0  0  0  0  0  0  0  0  0  0  0
   -0.7500    3.8971    0.0000 C   0  0  0  0  0  0  0  0  0  0  0  0
  1  2  1  0
  2  3  1  0
  3  4  1  0
  4  5  2  0
  5  6  1  0
  6  7  1  0
  6  8  2  0
  8  9  1  0
  9 10  2  0
 10 11  1  0
 11 12  1  0
 12 13  2  0
 13 14  1  0
 14 15  2  0
 15 16  1  0
 16 17  3  0
 15 18  1  0
 18 19  1  0
 19 20  1  0
 19 21  1  0
 19 22  1  0
 18 23  2  0
 10  4  1  0
 23 12  1  0
M  END
>  <assay_chembl_id>  (206) 
CHEMBL987689

>  <assay_description>  (206) 
Displacement of [3H]DHT from human cloned androgen receptor expressed in insect Sf9 cell system

>  <parent_molecule_chembl_id>  (206) 
CHEMBL510289

>  <canonical_smiles>  (206) 
CCOc1cc(C)ccc1Oc1ccc(C#N)c(C(F)(F)F)c1

>  <standard_type>  (206) 
IC50

>  <standard_relation>  (206) 
=

>  <standard_value>  (206) 
257.0

>  <standard_units>  (206) 
nM

>  <target_pref_name>  (206) 
Androgen Receptor

>  <target_chembl_id>  (206) 
CHEMBL1871

>  <target_organism>  (206) 
Homo sapiens

>  <pchembl_median>  (206) 
5.8

$$$$
CHEMBL511145
     RDKit          2D

 21 22  0  0  0  0  0  0  0  0999 V2000
    3.0000    0.0000    0.0000 C   0  0  0  0  0  0  0  0  0  0  0  0
    1.5000    0.0000    0.0000 C   0  0  0  0  0  0  0  0  0  0  0  0
    0.7500   -1.2990    0.0000 C   0  0  0  0  0  0  0  0  0  0  0  0
   -0.7500   -1.2990    0.0000 C   0  0  0  0  0  0  0  0  0  0  0  0
   -1.5000    0.0000    0.0000 C   0  0  0  0  0  0  0  0  0  0  0  0
   -3.0000    0.0000    0.0000 O   0  0  0  0  0  0  0  0  0  0  0  0
   -3.7500   -1.2990    0.0000 C   0  0  0  0  0  0  0  0  0  0  0  0
   -5.2500   -1.2990    0.0000 C   0  0  0  0  0  0  0  0  0  0  0  0
   -6.0000   -2.5981    0.0000 C   0  0  0  0  0  0  0  0  0  0  0  0
   -5.2500   -3.8971    0.0000 C   0  0  0  0  0  0  0  0  0  0  0  0
   -6.0000   -5.1962    0.0000 C   0  0  0  0  0  0  0  0  0  0  0  0
   -6.7500   -6.4952    0.0000 N   0  0  0  0  0  0  0  0  0  0  0  0
   -3.7500   -3.8971    0.0000 C   0  0  0  0  0  0  0  0  0  0  0  0
   -3.0000   -5.1962    0.0000 C   0  0  0  0  0  0  0  0  0  0  0  0
   -2.2500   -6.4952    0.0000 F   0  0  0  0  0  0  0  0  0  0  0  0
   -1.7010   -4.4462    0.0000 F   0  0  0  0  0  0  0  0  0  0  0  0
   -4.2990   -5.9462    0.0000 F   0  0  0  0  0  0  0  0  0  0  0  0
   -3.0000   -2.5981    0.0000 C   0  0  0  0  0  0  0  0  0  0  0  0
   -0.7500    1.2990    0.0000 C   0  0  0  0  0  0  0  0  0  0  0  0
   -1.5000    2.5981    0.0000 O   0  0  0  0  0  0  0  0  0  0  0  0
    0.7500    1.2990    0.0000 C   0  0  0  0  0  0  0  0  0  0  0  0
  1  2  1  0
  2  3  2  0
  3  4  1  0
  4  5  2  0
  5  6  1  0
  6  7  1  0
  7  8  2  0
  8  9  1  0
  9 10  2  0
 10 11  1  0
 11 12  3  0
 10 13  1  0
 13 14  1  0
 14 15  1  0
 14 16  1  0
 14 17  1  0
 13 18  2  0
  5 19  1  0
 19 20  1  0
 19 21  2  0
 21  2  1  0
 18  7  1  0
M  END
>  <assay_chembl_id>  (207) 
CHEMBL987689

>  <assay_description>  (207) 
Displacement of [3H]DHT from human cloned androgen receptor expressed in insect Sf9 cell system

>  <parent_molecule_chembl_id>  (207) 
CHEMBL511145

>  <canonical_smiles>  (207) 
Cc1ccc(Oc2ccc(C#N)c(C(F)(F)F)c2)c(O)c1

>  <standard_type>  (207) 
IC50

>  <standard_relation>  (207) 
=

>  <standard_value>  (207) 
354.0

>  <standard_units>  (207) 
nM

>  <target_pref_name>  (207) 
Androgen Receptor

>  <target_chembl_id>  (207) 
CHEMBL1871

>  <target_organism>  (207) 
Homo sapiens

>  <pchembl_median>  (207) 
5.68

$$$$
CHEMBL471876
     RDKit          2D

 25 27  0  0  0  0  0  0  0  0999 V2000
    4.5000    0.0000    0.0000 N   0  0  0  0  0  0  0  0  0  0  0  0
    3.0000    0.0000    0.0000 C   0  0  0  0  0  0  0  0  0  0  0  0
    1.5000    0.0000    0.0000 C   0  0  0  0  0  0  0  0  0  0  0  0
    0.7500   -1.2990    0.0000 C   0  0  0  0  0  0  0  0  0  0  0  0
   -0.7500   -1.2990    0.0000 C   0  0  0  0  0  0  0  0  0  0  0  0
   -1.5000    0.0000    0.0000 C   0  0  0  0  0  0  0  0  0  0  0  0
   -3.0000    0.0000    0.0000 O   0  0  0  0  0  0  0  0  0  0  0  0
   -3.7500    1.2990    0.0000 C   0  0  0  0  0  0  0  0  0  0  0  0
   -3.0000    2.5981    0.0000 C   0  0  0  0  0  0  0  0  0  0  0  0
   -3.7500    3.8971    0.0000 C   0  0  0  0  0  0  0  0  0  0  0  0
   -5.2500    3.8971    0.0000 C   0  0  0  0  0  0  0  0  0  0  0  0
   -6.0000    2.5981    0.0000 C   0  0  0  0  0  0  0  0  0  0  0  0
   -5.2500    1.2990    0.0000 C   0  0  0  0  0  0  0  0  0  0  0  0
   -6.0000    0.0000    0.0000 C   0  0  0  0  0  0  0  0  0  0  0  0
   -7.5000    0.0000    0.0000 C   0  0  0  0  0  0  0  0  0  0  0  0
   -8.2500   -1.2990    0.0000 C   0  0  0  0  0  0  0  0  0  0  0  0
   -7.5000   -2.5981    0.0000 C   0  0  0  0  0  0  0  0  0  0  0  0
   -6.0000   -2.5981    0.0000 C   0  0  0  0  0  0  0  0  0  0  0  0
   -5.2500   -1.2990    0.0000 C   0  0  0  0  0  0  0  0  0  0  0  0
   -0.7500    1.2990    0.0000 C   0  0  0  0  0  0  0  0  0  0  0  0
    0.7500    1.2990    0.0000 C   0  0  0  0  0  0  0  0  0  0  0  0
    1.5000    2.5981    0.0000 C   0  0  0  0  0  0  0  0  0  0  0  0
    2.2500    3.8971    0.0000 F   0  0  0  0  0  0  0  0  0  0  0  0
    0.2010    3.3481    0.0000 F   0  0  0  0  0  0  0  0  0  0  0  0
    2.7990    1.8481    0.0000 F   0  0  0  0  0  0  0  0  0  0  0  0
  1  2  3  0
  2  3  1  0
  3  4  2  0
  4  5  1  0
  5  6  2  0
  6  7  1  0
  7  8  1  0
  8  9  2  0
  9 10  1  0
 10 11  2  0
 11 12  1  0
 12 13  2  0
 13 14  1  0
 14 15  2  0
 15 16  1  0
 16 17  2  0
 17 18  1  0
 18 19  2  0
  6 20  1  0
 20 21  2  0
 21 22  1  0
 22 23  1  0
 22 24  1  0
 22 25  1  0
 21  3  1  0
 13  8  1  0
 19 14  1  0
M  END
>  <assay_chembl_id>  (208) 
CHEMBL987689

>  <assay_description>  (208) 
Displacement of [3H]DHT from human cloned androgen receptor expressed in insect Sf9 cell system

>  <parent_molecule_chembl_id>  (208) 
CHEMBL471876

>  <canonical_smiles>  (208) 
N#Cc1ccc(Oc2ccccc2-c2ccccc2)cc1C(F)(F)F

>  <standard_type>  (208) 
IC50

>  <standard_relation>  (208) 
=

>  <standard_value>  (208) 
430.0

>  <standard_units>  (208) 
nM

>  <target_pref_name>  (208) 
Androgen Receptor

>  <target_chembl_id>  (208) 
CHEMBL1871

>  <target_organism>  (208) 
Homo sapiens

>  <pchembl_median>  (208) 
5.43

$$$$
CHEMBL507267
     RDKit          2D

 22 23  0  0  0  0  0  0  0  0999 V2000
    3.7500   -1.2990    0.0000 C   0  0  0  0  0  0  0  0  0  0  0  0
    3.0000    0.0000    0.0000 C   0  0  0  0  0  0  0  0  0  0  0  0
    3.7500    1.2990    0.0000 C   0  0  0  0  0  0  0  0  0  0  0  0
    1.5000    0.0000    0.0000 C   0  0  0  0  0  0  0  0  0  0  0  0
    0.7500   -1.2990    0.0000 C   0  0  0  0  0  0  0  0  0  0  0  0
   -0.7500   -1.2990    0.0000 C   0  0  0  0  0  0  0  0  0  0  0  0
   -1.5000    0.0000    0.0000 C   0  0  0  0  0  0  0  0  0  0  0  0
   -0.7500    1.2990    0.0000 C   0  0  0  0  0  0  0  0  0  0  0  0
    0.7500    1.2990    0.0000 C   0  0  0  0  0  0  0  0  0  0  0  0
    1.5000    2.5981    0.0000 O   0  0  0  0  0  0  0  0  0  0  0  0
    0.7500    3.8971    0.0000 C   0  0  0  0  0  0  0  0  0  0  0  0
    1.5000    5.1962    0.0000 C   0  0  0  0  0  0  0  0  0  0  0  0
    0.7500    6.4952    0.0000 C   0  0  0  0  0  0  0  0  0  0  0  0
   -0.7500    6.4952    0.0000 C   0  0  0  0  0  0  0  0  0  0  0  0
   -1.5000    7.7942    0.0000 C   0  0  0  0  0  0  0  0  0  0  0  0
   -2.2500    9.0933    0.0000 N   0  0  0  0  0  0  0  0  0  0  0  0
   -1.5000    5.1962    0.0000 C   0  0  0  0  0  0  0  0  0  0  0  0
   -3.0000    5.1962    0.0000 C   0  0  0  0  0  0  0  0  0  0  0  0
   -4.5000    5.1962    0.0000 F   0  0  0  0  0  0  0  0  0  0  0  0
   -3.0000    3.6962    0.0000 F   0  0  0  0  0  0  0  0  0  0  0  0
   -3.0000    6.6962    0.0000 F   0  0  0  0  0  0  0  0  0  0  0  0
   -0.7500    3.8971    0.0000 C   0  0  0  0  0  0  0  0  0  0  0  0
  1  2  1  0
  2  3  1  0
  2  4  1  0
  4  5  2  0
  5  6  1  0
  6  7  2  0
  7  8  1  0
  8  9  2  0
  9 10  1  0
 10 11  1  0
 11 12  2  0
 12 13  1  0
 13 14  2  0
 14 15  1  0
 15 16  3  0
 14 17  1  0
 17 18  1  0
 18 19  1  0
 18 20  1  0
 18 21  1  0
 17 22  2  0
  9  4  1  0
 22 11  1  0
M  END
>  <assay_chembl_id>  (209) 
CHEMBL987689

>  <assay_description>  (209) 
Displacement of [3H]DHT from human cloned androgen receptor expressed in insect Sf9 cell system

>  <parent_molecule_chembl_id>  (209) 
CHEMBL507267

>  <canonical_smiles>  (209) 
CC(C)c1ccccc1Oc1ccc(C#N)c(C(F)(F)F)c1

>  <standard_type>  (209) 
IC50

>  <standard_relation>  (209) 
=

>  <standard_value>  (209) 
2280.0

>  <standard_units>  (209) 
nM

>  <target_pref_name>  (209) 
Androgen Receptor

>  <target_chembl_id>  (209) 
CHEMBL1871

>  <target_organism>  (209) 
Homo sapiens

>  <pchembl_median>  (209) 
4.97

$$$$
CHEMBL470841
     RDKit          2D

 20 21  0  0  0  0  0  0  0  0999 V2000
    4.5000    0.0000    0.0000 N   0  0  0  0  0  0  0  0  0  0  0  0
    3.0000    0.0000    0.0000 C   0  0  0  0  0  0  0  0  0  0  0  0
    1.5000    0.0000    0.0000 C   0  0  0  0  0  0  0  0  0  0  0  0
    0.7500   -1.2990    0.0000 C   0  0  0  0  0  0  0  0  0  0  0  0
   -0.7500   -1.2990    0.0000 C   0  0  0  0  0  0  0  0  0  0  0  0
   -1.5000    0.0000    0.0000 C   0  0  0  0  0  0  0  0  0  0  0  0
   -3.0000    0.0000    0.0000 O   0  0  0  0  0  0  0  0  0  0  0  0
   -3.7500    1.2990    0.0000 C   0  0  0  0  0  0  0  0  0  0  0  0
   -3.0000    2.5981    0.0000 C   0  0  0  0  0  0  0  0  0  0  0  0
   -3.7500    3.8971    0.0000 C   0  0  0  0  0  0  0  0  0  0  0  0
   -5.2500    3.8971    0.0000 C   0  0  0  0  0  0  0  0  0  0  0  0
   -6.0000    2.5981    0.0000 C   0  0  0  0  0  0  0  0  0  0  0  0
   -7.5000    2.5981    0.0000 Cl  0  0  0  0  0  0  0  0  0  0  0  0
   -5.2500    1.2990    0.0000 C   0  0  0  0  0  0  0  0  0  0  0  0
   -0.7500    1.2990    0.0000 C   0  0  0  0  0  0  0  0  0  0  0  0
    0.7500    1.2990    0.0000 C   0  0  0  0  0  0  0  0  0  0  0  0
    1.5000    2.5981    0.0000 C   0  0  0  0  0  0  0  0  0  0  0  0
    2.2500    3.8971    0.0000 F   0  0  0  0  0  0  0  0  0  0  0  0
    0.2010    3.3481    0.0000 F   0  0  0  0  0  0  0  0  0  0  0  0
    2.7990    1.8481    0.0000 F   0  0  0  0  0  0  0  0  0  0  0  0
  1  2  3  0
  2  3  1  0
  3  4  2  0
  4  5  1  0
  5  6  2  0
  6  7  1  0
  7  8  1  0
  8  9  2  0
  9 10  1  0
 10 11  2  0
 11 12  1  0
 12 13  1  0
 12 14  2  0
  6 15  1  0
 15 16  2  0
 16 17  1  0
 17 18  1  0
 17 19  1  0
 17 20  1  0
 16  3  1  0
 14  8  1  0
M  END
>  <assay_chembl_id>  (210) 
CHEMBL987689

>  <assay_description>  (210) 
Displacement of [3H]DHT from human cloned androgen receptor expressed in insect Sf9 cell system

>  <parent_molecule_chembl_id>  (210) 
CHEMBL470841

>  <canonical_smiles>  (210) 
N#Cc1ccc(Oc2cccc(Cl)c2)cc1C(F)(F)F

>  <standard_type>  (210) 
IC50

>  <standard_relation>  (210) 
=

>  <standard_value>  (210) 
2720.0

>  <standard_units>  (210) 
nM

>  <target_pref_name>  (210) 
Androgen Receptor

>  <target_chembl_id>  (210) 
CHEMBL1871

>  <target_organism>  (210) 
Homo sapiens

>  <pchembl_median>  (210) 
5.23

$$$$
CHEMBL470842
     RDKit          2D

 20 21  0  0  0  0  0  0  0  0999 V2000
    4.5000    0.0000    0.0000 N   0  0  0  0  0  0  0  0  0  0  0  0
    3.0000    0.0000    0.0000 C   0  0  0  0  0  0  0  0  0  0  0  0
    1.5000    0.0000    0.0000 C   0  0  0  0  0  0  0  0  0  0  0  0
    0.7500   -1.2990    0.0000 C   0  0  0  0  0  0  0  0  0  0  0  0
   -0.7500   -1.2990    0.0000 C   0  0  0  0  0  0  0  0  0  0  0  0
   -1.5000    0.0000    0.0000 C   0  0  0  0  0  0  0  0  0  0  0  0
   -3.0000    0.0000    0.0000 O   0  0  0  0  0  0  0  0  0  0  0  0
   -3.7500    1.2990    0.0000 C   0  0  0  0  0  0  0  0  0  0  0  0
   -3.0000    2.5981    0.0000 C   0  0  0  0  0  0  0  0  0  0  0  0
   -3.7500    3.8971    0.0000 C   0  0  0  0  0  0  0  0  0  0  0  0
   -5.2500    3.8971    0.0000 C   0  0  0  0  0  0  0  0  0  0  0  0
   -6.0000    5.1962    0.0000 Cl  0  0  0  0  0  0  0  0  0  0  0  0
   -6.0000    2.5981    0.0000 C   0  0  0  0  0  0  0  0  0  0  0  0
   -5.2500    1.2990    0.0000 C   0  0  0  0  0  0  0  0  0  0  0  0
   -0.7500    1.2990    0.0000 C   0  0  0  0  0  0  0  0  0  0  0  0
    0.7500    1.2990    0.0000 C   0  0  0  0  0  0  0  0  0  0  0  0
    1.5000    2.5981    0.0000 C   0  0  0  0  0  0  0  0  0  0  0  0
    2.2500    3.8971    0.0000 F   0  0  0  0  0  0  0  0  0  0  0  0
    0.2010    3.3481    0.0000 F   0  0  0  0  0  0  0  0  0  0  0  0
    2.7990    1.8481    0.0000 F   0  0  0  0  0  0  0  0  0  0  0  0
  1  2  3  0
  2  3  1  0
  3  4  2  0
  4  5  1  0
  5  6  2  0
  6  7  1  0
  7  8  1  0
  8  9  2  0
  9 10  1  0
 10 11  2  0
 11 12  1  0
 11 13  1  0
 13 14  2  0
  6 15  1  0
 15 16  2  0
 16 17  1  0
 17 18  1  0
 17 19  1  0
 17 20  1  0
 16  3  1  0
 14  8  1  0
M  END
>  <assay_chembl_id>  (211) 
CHEMBL987689

>  <assay_description>  (211) 
Displacement of [3H]DHT from human cloned androgen receptor expressed in insect Sf9 cell system

>  <parent_molecule_chembl_id>  (211) 
CHEMBL470842

>  <canonical_smiles>  (211) 
N#Cc1ccc(Oc2ccc(Cl)cc2)cc1C(F)(F)F

>  <standard_type>  (211) 
IC50

>  <standard_relation>  (211) 
=

>  <standard_value>  (211) 
6650.0

>  <standard_units>  (211) 
nM

>  <target_pref_name>  (211) 
Androgen Receptor

>  <target_chembl_id>  (211) 
CHEMBL1871

>  <target_organism>  (211) 
Homo sapiens

>  <pchembl_median>  (211) 
6.63

$$$$
CHEMBL482064
     RDKit          2D

 30 33  0  0  0  0  0  0  0  0999 V2000
    3.0000   -2.5981    0.0000 O   0  0  0  0  0  0  0  0  0  0  0  0
    1.5000   -2.5981    0.0000 C   0  0  0  0  0  0  0  0  0  0  0  0
    0.7500   -1.2990    0.0000 C   0  0  0  0  0  0  0  0  0  0  0  0
    1.5000    0.0000    0.0000 C   0  0  0  0  0  0  0  0  0  0  0  0
    0.7500    1.2990    0.0000 C   0  0  0  0  0  0  0  0  0  0  0  0
   -0.7500    1.2990    0.0000 C   0  0  0  0  0  0  0  0  0  0  0  0
   -1.5000    0.0000    0.0000 C   0  0  0  0  0  0  0  0  0  0  0  0
   -3.0000    0.0000    0.0000 N   0  0  0  0  0  0  0  0  0  0  0  0
   -3.7500    1.2990    0.0000 C   0  0  0  0  0  0  0  0  0  0  0  0
   -5.2500    1.2990    0.0000 C   0  0  0  0  0  0  0  0  0  0  0  0
   -6.0000    2.5981    0.0000 C   0  0  0  0  0  0  0  0  0  0  0  0
   -7.5000    2.5981    0.0000 C   0  0  0  0  0  0  0  0  0  0  0  0
   -8.2500    1.2990    0.0000 C   0  0  0  0  0  0  0  0  0  0  0  0
   -7.5000    0.0000    0.0000 C   0  0  0  0  0  0  0  0  0  0  0  0
   -6.0000    0.0000    0.0000 C   0  0  0  0  0  0  0  0  0  0  0  0
   -3.7500   -1.2990    0.0000 C   0  0  0  0  0  0  0  0  0  0  0  0
   -5.2500   -1.2990    0.0000 C   0  0  0  0  0  0  0  0  0  0  0  0
   -6.0000   -2.5981    0.0000 C   0  0  0  0  0  0  0  0  0  0  0  0
   -5.2500   -3.8971    0.0000 C   0  0  0  0  0  0  0  0  0  0  0  0
   -6.0000   -5.1962    0.0000 N   0  0  0  0  0  4  0  0  0  0  0  0
   -5.2500   -6.4952    0.0000 O   0  0  0  0  0  0  0  0  0  0  0  0
   -7.5000   -5.1962    0.0000 O   0  0  0  0  0  1  0  0  0  0  0  0
   -3.7500   -3.8971    0.0000 C   0  0  0  0  0  0  0  0  0  0  0  0
   -3.0000   -2.5981    0.0000 C   0  0  0  0  0  0  0  0  0  0  0  0
   -0.7500   -1.2990    0.0000 C   0  0  0  0  0  0  0  0  0  0  0  0
    0.7500   -3.8971    0.0000 N   0  0  0  0  0  0  0  0  0  0  0  0
    1.3601   -5.2674    0.0000 C   0  0  0  0  0  0  0  0  0  0  0  0
    0.2454   -6.2711    0.0000 C   0  0  0  0  0  0  0  0  0  0  0  0
   -1.0537   -5.5211    0.0000 C   0  0  0  0  0  0  0  0  0  0  0  0
   -0.7418   -4.0539    0.0000 C   0  0  0  0  0  0  0  0  0  0  0  0
  1  2  2  0
  2  3  1  0
  3  4  2  0
  4  5  1  0
  5  6  2  0
  6  7  1  0
  7  8  1  0
  8  9  1  0
  9 10  1  0
 10 11  2  0
 11 12  1  0
 12 13  2  0
 13 14  1  0
 14 15  2  0
  8 16  1  0
 16 17  2  0
 17 18  1  0
 18 19  2  0
 19 20  1  0
 20 21  2  0
 20 22  1  0
 19 23  1  0
 23 24  2  0
  7 25  2  0
  2 26  1  0
 26 27  1  0
 27 28  1  0
 28 29  1  0
 29 30  1  0
 25  3  1  0
 30 26  1  0
 15 10  1  0
 24 16  1  0
M  CHG  2  20   1  22  -1
M  END
>  <assay_chembl_id>  (212) 
CHEMBL1013144

>  <assay_description>  (212) 
Antagonist activity at wild type human recombinant androgen receptor assessed as inhibition of testosterone-induced growth of mouse androgen dependent SC3 cells by WST-1 method

>  <parent_molecule_chembl_id>  (212) 
CHEMBL482064

>  <canonical_smiles>  (212) 
O=C(c1cccc(N(Cc2ccccc2)c2ccc([N+](=O)[O-])cc2)c1)N1CCCC1

>  <standard_type>  (212) 
IC50

>  <standard_relation>  (212) 
=

>  <standard_value>  (212) 
4900.0

>  <standard_units>  (212) 
nM

>  <target_pref_name>  (212) 
Androgen Receptor

>  <target_chembl_id>  (212) 
CHEMBL1871

>  <target_organism>  (212) 
Homo sapiens

>  <pchembl_median>  (212) 
6.49

$$$$
CHEMBL482063
     RDKit          2D

 30 33  0  0  0  0  0  0  0  0999 V2000
    3.0000   -2.5981    0.0000 O   0  0  0  0  0  0  0  0  0  0  0  0
    1.5000   -2.5981    0.0000 C   0  0  0  0  0  0  0  0  0  0  0  0
    0.7500   -1.2990    0.0000 C   0  0  0  0  0  0  0  0  0  0  0  0
    1.5000    0.0000    0.0000 C   0  0  0  0  0  0  0  0  0  0  0  0
    0.7500    1.2990    0.0000 C   0  0  0  0  0  0  0  0  0  0  0  0
   -0.7500    1.2990    0.0000 C   0  0  0  0  0  0  0  0  0  0  0  0
   -1.5000    2.5981    0.0000 N   0  0  0  0  0  0  0  0  0  0  0  0
   -0.7500    3.8971    0.0000 C   0  0  0  0  0  0  0  0  0  0  0  0
   -1.5000    5.1962    0.0000 C   0  0  0  0  0  0  0  0  0  0  0  0
   -0.7500    6.4952    0.0000 C   0  0  0  0  0  0  0  0  0  0  0  0
   -1.5000    7.7942    0.0000 C   0  0  0  0  0  0  0  0  0  0  0  0
   -3.0000    7.7942    0.0000 C   0  0  0  0  0  0  0  0  0  0  0  0
   -3.7500    6.4952    0.0000 C   0  0  0  0  0  0  0  0  0  0  0  0
   -3.0000    5.1962    0.0000 C   0  0  0  0  0  0  0  0  0  0  0  0
   -3.0000    2.5981    0.0000 C   0  0  0  0  0  0  0  0  0  0  0  0
   -3.7500    3.8971    0.0000 C   0  0  0  0  0  0  0  0  0  0  0  0
   -5.2500    3.8971    0.0000 C   0  0  0  0  0  0  0  0  0  0  0  0
   -6.0000    2.5981    0.0000 C   0  0  0  0  0  0  0  0  0  0  0  0
   -7.5000    2.5981    0.0000 N   0  0  0  0  0  4  0  0  0  0  0  0
   -8.2500    1.2990    0.0000 O   0  0  0  0  0  0  0  0  0  0  0  0
   -8.2500    3.8971    0.0000 O   0  0  0  0  0  1  0  0  0  0  0  0
   -5.2500    1.2990    0.0000 C   0  0  0  0  0  0  0  0  0  0  0  0
   -3.7500    1.2990    0.0000 C   0  0  0  0  0  0  0  0  0  0  0  0
   -1.5000    0.0000    0.0000 C   0  0  0  0  0  0  0  0  0  0  0  0
   -0.7500   -1.2990    0.0000 C   0  0  0  0  0  0  0  0  0  0  0  0
    0.7500   -3.8971    0.0000 N   0  0  0  0  0  0  0  0  0  0  0  0
    1.3601   -5.2674    0.0000 C   0  0  0  0  0  0  0  0  0  0  0  0
    0.2454   -6.2711    0.0000 C   0  0  0  0  0  0  0  0  0  0  0  0
   -1.0537   -5.5211    0.0000 C   0  0  0  0  0  0  0  0  0  0  0  0
   -0.7418   -4.0539    0.0000 C   0  0  0  0  0  0  0  0  0  0  0  0
  1  2  2  0
  2  3  1  0
  3  4  2  0
  4  5  1  0
  5  6  2  0
  6  7  1  0
  7  8  1  0
  8  9  1  0
  9 10  2  0
 10 11  1  0
 11 12  2  0
 12 13  1  0
 13 14  2  0
  7 15  1  0
 15 16  2  0
 16 17  1  0
 17 18  2  0
 18 19  1  0
 19 20  2  0
 19 21  1  0
 18 22  1  0
 22 23  2  0
  6 24  1  0
 24 25  2  0
  2 26  1  0
 26 27  1  0
 27 28  1  0
 28 29  1  0
 29 30  1  0
 25  3  1  0
 30 26  1  0
 14  9  1  0
 23 15  1  0
M  CHG  2  19   1  21  -1
M  END
>  <assay_chembl_id>  (213) 
CHEMBL1013144

>  <assay_description>  (213) 
Antagonist activity at wild type human recombinant androgen receptor assessed as inhibition of testosterone-induced growth of mouse androgen dependent SC3 cells by WST-1 method

>  <parent_molecule_chembl_id>  (213) 
CHEMBL482063

>  <canonical_smiles>  (213) 
O=C(c1ccc(N(Cc2ccccc2)c2ccc([N+](=O)[O-])cc2)cc1)N1CCCC1

>  <standard_type>  (213) 
IC50

>  <standard_relation>  (213) 
=

>  <standard_value>  (213) 
3700.0

>  <standard_units>  (213) 
nM

>  <target_pref_name>  (213) 
Androgen Receptor

>  <target_chembl_id>  (213) 
CHEMBL1871

>  <target_organism>  (213) 
Homo sapiens

>  <pchembl_median>  (213) 
5.98

$$$$
CHEMBL519292
     RDKit          2D

 32 35  0  0  0  0  0  0  0  0999 V2000
   -4.2718   -5.5288    0.0000 C   0  0  0  0  0  0  0  0  0  0  0  0
   -3.0583   -4.6471    0.0000 N   0  0  0  0  0  0  0  0  0  0  0  0
   -1.6317   -5.1106    0.0000 C   0  0  0  0  0  0  0  0  0  0  0  0
   -0.7500   -3.8971    0.0000 C   0  0  0  0  0  0  0  0  0  0  0  0
    0.7500   -3.8971    0.0000 N   0  0  0  0  0  0  0  0  0  0  0  0
    1.5000   -2.5981    0.0000 C   0  0  0  0  0  0  0  0  0  0  0  0
    0.7500   -1.2990    0.0000 C   0  0  0  0  0  0  0  0  0  0  0  0
    1.5000    0.0000    0.0000 C   0  0  0  0  0  0  0  0  0  0  0  0
    0.7500    1.2990    0.0000 C   0  0  0  0  0  0  0  0  0  0  0  0
   -0.7500    1.2990    0.0000 C   0  0  0  0  0  0  0  0  0  0  0  0
   -1.5000    0.0000    0.0000 C   0  0  0  0  0  0  0  0  0  0  0  0
   -0.7500   -1.2990    0.0000 C   0  0  0  0  0  0  0  0  0  0  0  0
    1.5000   -5.1962    0.0000 C   0  0  0  0  0  0  0  0  0  0  0  0
    0.7500   -6.4952    0.0000 C   0  0  0  0  0  0  0  0  0  0  0  0
    1.5000   -7.7942    0.0000 C   0  0  0  0  0  0  0  0  0  0  0  0
    3.0000   -7.7942    0.0000 C   0  0  0  0  0  0  0  0  0  0  0  0
    3.7500   -9.0933    0.0000 N   0  0  0  0  0  4  0  0  0  0  0  0
    5.2500   -9.0933    0.0000 O   0  0  0  0  0  0  0  0  0  0  0  0
    3.0000  -10.3923    0.0000 O   0  0  0  0  0  1  0  0  0  0  0  0
    3.7500   -6.4952    0.0000 C   0  0  0  0  0  0  0  0  0  0  0  0
    3.0000   -5.1962    0.0000 C   0  0  0  0  0  0  0  0  0  0  0  0
   -1.6317   -2.6836    0.0000 C   0  0  0  0  0  0  0  0  0  0  0  0
   -3.0583   -3.1471    0.0000 C   0  0  0  0  0  0  0  0  0  0  0  0
   -4.2718   -2.2654    0.0000 C   0  0  0  0  0  0  0  0  0  0  0  0
   -5.6421   -2.8755    0.0000 O   0  0  0  0  0  0  0  0  0  0  0  0
   -4.1150   -0.7737    0.0000 N   0  0  0  0  0  0  0  0  0  0  0  0
   -5.2297    0.2300    0.0000 C   0  0  0  0  0  0  0  0  0  0  0  0
   -4.6196    1.6004    0.0000 C   0  0  0  0  0  0  0  0  0  0  0  0
   -5.3696    2.8994    0.0000 O   0  0  0  0  0  0  0  0  0  0  0  0
   -3.1278    1.4436    0.0000 C   0  0  0  0  0  0  0  0  0  0  0  0
   -2.1241    2.5583    0.0000 O   0  0  0  0  0  0  0  0  0  0  0  0
   -2.8160   -0.0237    0.0000 C   0  0  0  0  0  0  0  0  0  0  0  0
  1  2  1  0
  2  3  1  0
  3  4  2  0
  4  5  1  0
  5  6  1  0
  6  7  1  0
  7  8  2  0
  8  9  1  0
  9 10  2  0
 10 11  1  0
 11 12  2  0
  5 13  1  0
 13 14  2  0
 14 15  1  0
 15 16  2  0
 16 17  1  0
 17 18  2  0
 17 19  1  0
 16 20  1  0
 20 21  2  0
  4 22  1  0
 22 23  2  0
 23 24  1  0
 24 25  2  0
 24 26  1  0
 26 27  1  0
 27 28  1  0
 28 29  1  6
 28 30  1  0
 30 31  1  1
 30 32  1  0
 23  2  1  0
 32 26  1  0
 12  7  1  0
 21 13  1  0
M  CHG  2  17   1  19  -1
M  END
>  <assay_chembl_id>  (214) 
CHEMBL1013144

>  <assay_description>  (214) 
Antagonist activity at wild type human recombinant androgen receptor assessed as inhibition of testosterone-induced growth of mouse androgen dependent SC3 cells by WST-1 method

>  <parent_molecule_chembl_id>  (214) 
CHEMBL519292

>  <canonical_smiles>  (214) 
Cn1cc(N(Cc2ccccc2)c2ccc([N+](=O)[O-])cc2)cc1C(=O)N1C[C@H](O)[C@@H](O)C1

>  <standard_type>  (214) 
IC50

>  <standard_relation>  (214) 
=

>  <standard_value>  (214) 
13700.0

>  <standard_units>  (214) 
nM

>  <target_pref_name>  (214) 
Androgen Receptor

>  <target_chembl_id>  (214) 
CHEMBL1871

>  <target_organism>  (214) 
Homo sapiens

>  <pchembl_median>  (214) 
5.75

$$$$
CHEMBL503676
     RDKit          2D

 34 38  0  0  0  0  0  0  0  0999 V2000
   -5.6213   -4.5165    0.0000 C   0  0  0  0  0  0  0  0  0  0  0  0
   -4.3223   -5.2665    0.0000 N   0  0  0  0  0  0  0  0  0  0  0  0
   -4.1655   -6.7583    0.0000 C   0  0  0  0  0  0  0  0  0  0  0  0
   -2.6983   -7.0701    0.0000 C   0  0  0  0  0  0  0  0  0  0  0  0
   -2.0882   -8.4404    0.0000 N   0  0  0  0  0  0  0  0  0  0  0  0
   -2.9699   -9.6540    0.0000 C   0  0  0  0  0  0  0  0  0  0  0  0
   -2.3597  -11.0243    0.0000 C   0  0  0  0  0  0  0  0  0  0  0  0
   -3.2414  -12.2378    0.0000 C   0  0  0  0  0  0  0  0  0  0  0  0
   -2.6313  -13.6081    0.0000 C   0  0  0  0  0  0  0  0  0  0  0  0
   -1.1395  -13.7649    0.0000 C   0  0  0  0  0  0  0  0  0  0  0  0
   -0.2579  -12.5514    0.0000 C   0  0  0  0  0  0  0  0  0  0  0  0
   -0.8680  -11.1811    0.0000 C   0  0  0  0  0  0  0  0  0  0  0  0
   -0.5964   -8.5972    0.0000 C   0  0  0  0  0  0  0  0  0  0  0  0
    0.0137   -9.9676    0.0000 C   0  0  0  0  0  0  0  0  0  0  0  0
    1.5055  -10.1243    0.0000 C   0  0  0  0  0  0  0  0  0  0  0  0
    2.3872   -8.9108    0.0000 C   0  0  0  0  0  0  0  0  0  0  0  0
    3.8790   -9.0676    0.0000 N   0  0  0  0  0  4  0  0  0  0  0  0
    4.7606   -7.8541    0.0000 O   0  0  0  0  0  0  0  0  0  0  0  0
    4.4891  -10.4379    0.0000 O   0  0  0  0  0  1  0  0  0  0  0  0
    1.7771   -7.5405    0.0000 C   0  0  0  0  0  0  0  0  0  0  0  0
    0.2853   -7.3837    0.0000 C   0  0  0  0  0  0  0  0  0  0  0  0
   -1.9483   -5.7711    0.0000 C   0  0  0  0  0  0  0  0  0  0  0  0
   -2.9520   -4.6564    0.0000 C   0  0  0  0  0  0  0  0  0  0  0  0
   -2.6401   -3.1891    0.0000 C   0  0  0  0  0  0  0  0  0  0  0  0
   -3.7548   -2.1855    0.0000 O   0  0  0  0  0  0  0  0  0  0  0  0
   -1.2135   -2.7256    0.0000 N   0  0  0  0  0  0  0  0  0  0  0  0
    0.0000   -3.6073    0.0000 C   0  0  0  0  0  0  0  0  0  0  0  0
    1.2135   -2.7256    0.0000 C   0  0  0  0  0  0  0  0  0  0  0  0
    0.7500   -1.2990    0.0000 C   0  0  0  0  0  0  0  0  0  0  0  0
    1.5000    0.0000    0.0000 C   0  0  0  0  0  0  0  0  0  0  0  0
    0.7500    1.2990    0.0000 C   0  0  0  0  0  0  0  0  0  0  0  0
   -0.7500    1.2990    0.0000 C   0  0  0  0  0  0  0  0  0  0  0  0
   -1.5000    0.0000    0.0000 C   0  0  0  0  0  0  0  0  0  0  0  0
   -0.7500   -1.2990    0.0000 C   0  0  0  0  0  0  0  0  0  0  0  0
  1  2  1  0
  2  3  1  0
  3  4  2  0
  4  5  1  0
  5  6  1  0
  6  7  1  0
  7  8  2  0
  8  9  1  0
  9 10  2  0
 10 11  1  0
 11 12  2  0
  5 13  1  0
 13 14  2  0
 14 15  1  0
 15 16  2  0
 16 17  1  0
 17 18  2  0
 17 19  1  0
 16 20  1  0
 20 21  2  0
  4 22  1  0
 22 23  2  0
 23 24  1  0
 24 25  2  0
 24 26  1  0
 26 27  1  0
 27 28  1  0
 28 29  1  0
 29 30  2  0
 30 31  1  0
 31 32  2  0
 32 33  1  0
 33 34  2  0
 23  2  1  0
 34 26  1  0
 12  7  1  0
 21 13  1  0
 34 29  1  0
M  CHG  2  17   1  19  -1
M  END
>  <assay_chembl_id>  (215) 
CHEMBL1013144

>  <assay_description>  (215) 
Antagonist activity at wild type human recombinant androgen receptor assessed as inhibition of testosterone-induced growth of mouse androgen dependent SC3 cells by WST-1 method

>  <parent_molecule_chembl_id>  (215) 
CHEMBL503676

>  <canonical_smiles>  (215) 
Cn1cc(N(Cc2ccccc2)c2ccc([N+](=O)[O-])cc2)cc1C(=O)N1CCc2ccccc21

>  <standard_type>  (215) 
IC50

>  <standard_relation>  (215) 
=

>  <standard_value>  (215) 
1000.0

>  <standard_units>  (215) 
nM

>  <target_pref_name>  (215) 
Androgen Receptor

>  <target_chembl_id>  (215) 
CHEMBL1871

>  <target_organism>  (215) 
Homo sapiens

>  <pchembl_median>  (215) 
6.16

$$$$
CHEMBL520428
     RDKit          2D

 31 34  0  0  0  0  0  0  0  0999 V2000
   -4.2718   -5.5288    0.0000 C   0  0  0  0  0  0  0  0  0  0  0  0
   -3.0583   -4.6471    0.0000 N   0  0  0  0  0  0  0  0  0  0  0  0
   -1.6317   -5.1106    0.0000 C   0  0  0  0  0  0  0  0  0  0  0  0
   -0.7500   -3.8971    0.0000 C   0  0  0  0  0  0  0  0  0  0  0  0
    0.7500   -3.8971    0.0000 N   0  0  0  0  0  0  0  0  0  0  0  0
    1.5000   -2.5981    0.0000 C   0  0  0  0  0  0  0  0  0  0  0  0
    0.7500   -1.2990    0.0000 C   0  0  0  0  0  0  0  0  0  0  0  0
    1.5000    0.0000    0.0000 C   0  0  0  0  0  0  0  0  0  0  0  0
    0.7500    1.2990    0.0000 C   0  0  0  0  0  0  0  0  0  0  0  0
   -0.7500    1.2990    0.0000 C   0  0  0  0  0  0  0  0  0  0  0  0
   -1.5000    0.0000    0.0000 C   0  0  0  0  0  0  0  0  0  0  0  0
   -0.7500   -1.2990    0.0000 C   0  0  0  0  0  0  0  0  0  0  0  0
    1.5000   -5.1962    0.0000 C   0  0  0  0  0  0  0  0  0  0  0  0
    0.7500   -6.4952    0.0000 C   0  0  0  0  0  0  0  0  0  0  0  0
    1.5000   -7.7942    0.0000 C   0  0  0  0  0  0  0  0  0  0  0  0
    3.0000   -7.7942    0.0000 C   0  0  0  0  0  0  0  0  0  0  0  0
    3.7500   -9.0933    0.0000 N   0  0  0  0  0  4  0  0  0  0  0  0
    5.2500   -9.0933    0.0000 O   0  0  0  0  0  0  0  0  0  0  0  0
    3.0000  -10.3923    0.0000 O   0  0  0  0  0  1  0  0  0  0  0  0
    3.7500   -6.4952    0.0000 C   0  0  0  0  0  0  0  0  0  0  0  0
    3.0000   -5.1962    0.0000 C   0  0  0  0  0  0  0  0  0  0  0  0
   -1.6317   -2.6836    0.0000 C   0  0  0  0  0  0  0  0  0  0  0  0
   -3.0583   -3.1471    0.0000 C   0  0  0  0  0  0  0  0  0  0  0  0
   -4.2718   -2.2654    0.0000 C   0  0  0  0  0  0  0  0  0  0  0  0
   -5.6421   -2.8755    0.0000 O   0  0  0  0  0  0  0  0  0  0  0  0
   -4.1150   -0.7737    0.0000 N   0  0  0  0  0  0  0  0  0  0  0  0
   -2.7447   -0.1635    0.0000 C   0  0  0  0  0  0  0  0  0  0  0  0
   -2.5879    1.3282    0.0000 C   0  0  0  0  0  0  0  0  0  0  0  0
   -3.8014    2.2099    0.0000 C   0  0  0  0  0  0  0  0  0  0  0  0
   -5.1717    1.5998    0.0000 C   0  0  0  0  0  0  0  0  0  0  0  0
   -5.3285    0.1080    0.0000 C   0  0  0  0  0  0  0  0  0  0  0  0
  1  2  1  0
  2  3  1  0
  3  4  2  0
  4  5  1  0
  5  6  1  0
  6  7  1  0
  7  8  2  0
  8  9  1  0
  9 10  2  0
 10 11  1  0
 11 12  2  0
  5 13  1  0
 13 14  2  0
 14 15  1  0
 15 16  2  0
 16 17  1  0
 17 18  2  0
 17 19  1  0
 16 20  1  0
 20 21  2  0
  4 22  1  0
 22 23  2  0
 23 24  1  0
 24 25  2  0
 24 26  1  0
 26 27  1  0
 27 28  1  0
 28 29  1  0
 29 30  1  0
 30 31  1  0
 23  2  1  0
 31 26  1  0
 12  7  1  0
 21 13  1  0
M  CHG  2  17   1  19  -1
M  END
>  <assay_chembl_id>  (216) 
CHEMBL1013144

>  <assay_description>  (216) 
Antagonist activity at wild type human recombinant androgen receptor assessed as inhibition of testosterone-induced growth of mouse androgen dependent SC3 cells by WST-1 method

>  <parent_molecule_chembl_id>  (216) 
CHEMBL520428

>  <canonical_smiles>  (216) 
Cn1cc(N(Cc2ccccc2)c2ccc([N+](=O)[O-])cc2)cc1C(=O)N1CCCCC1

>  <standard_type>  (216) 
IC50

>  <standard_relation>  (216) 
=

>  <standard_value>  (216) 
1700.0

>  <standard_units>  (216) 
nM

>  <target_pref_name>  (216) 
Androgen Receptor

>  <target_chembl_id>  (216) 
CHEMBL1871

>  <target_organism>  (216) 
Homo sapiens

>  <pchembl_median>  (216) 
8.15

$$$$
CHEMBL481302
     RDKit          2D

 34 36  0  0  0  0  0  0  0  0999 V2000
  -10.8098   -5.4618    0.0000 C   0  0  0  0  0  0  0  0  0  0  0  0
   -9.4395   -6.0719    0.0000 C   0  0  0  0  0  0  0  0  0  0  0  0
   -8.2260   -5.1903    0.0000 C   0  0  0  0  0  0  0  0  0  0  0  0
   -6.8556   -5.8004    0.0000 C   0  0  0  0  0  0  0  0  0  0  0  0
   -5.6421   -4.9187    0.0000 N   0  0  0  0  0  0  0  0  0  0  0  0
   -5.7989   -3.4269    0.0000 C   0  0  0  0  0  0  0  0  0  0  0  0
   -7.1692   -2.8168    0.0000 C   0  0  0  0  0  0  0  0  0  0  0  0
   -7.3260   -1.3250    0.0000 C   0  0  0  0  0  0  0  0  0  0  0  0
   -8.6963   -0.7149    0.0000 C   0  0  0  0  0  0  0  0  0  0  0  0
   -4.2718   -5.5288    0.0000 C   0  0  0  0  0  0  0  0  0  0  0  0
   -4.1150   -7.0206    0.0000 O   0  0  0  0  0  0  0  0  0  0  0  0
   -3.0583   -4.6471    0.0000 C   0  0  0  0  0  0  0  0  0  0  0  0
   -1.6317   -5.1106    0.0000 C   0  0  0  0  0  0  0  0  0  0  0  0
   -0.7500   -3.8971    0.0000 C   0  0  0  0  0  0  0  0  0  0  0  0
    0.7500   -3.8971    0.0000 N   0  0  0  0  0  0  0  0  0  0  0  0
    1.5000   -2.5981    0.0000 C   0  0  0  0  0  0  0  0  0  0  0  0
    0.7500   -1.2990    0.0000 C   0  0  0  0  0  0  0  0  0  0  0  0
    1.5000    0.0000    0.0000 C   0  0  0  0  0  0  0  0  0  0  0  0
    0.7500    1.2990    0.0000 C   0  0  0  0  0  0  0  0  0  0  0  0
   -0.7500    1.2990    0.0000 C   0  0  0  0  0  0  0  0  0  0  0  0
   -1.5000    0.0000    0.0000 C   0  0  0  0  0  0  0  0  0  0  0  0
   -0.7500   -1.2990    0.0000 C   0  0  0  0  0  0  0  0  0  0  0  0
    1.5000   -5.1962    0.0000 C   0  0  0  0  0  0  0  0  0  0  0  0
    0.7500   -6.4952    0.0000 C   0  0  0  0  0  0  0  0  0  0  0  0
    1.5000   -7.7942    0.0000 C   0  0  0  0  0  0  0  0  0  0  0  0
    3.0000   -7.7942    0.0000 C   0  0  0  0  0  0  0  0  0  0  0  0
    3.7500   -9.0933    0.0000 N   0  0  0  0  0  4  0  0  0  0  0  0
    5.2500   -9.0933    0.0000 O   0  0  0  0  0  0  0  0  0  0  0  0
    3.0000  -10.3923    0.0000 O   0  0  0  0  0  1  0  0  0  0  0  0
    3.7500   -6.4952    0.0000 C   0  0  0  0  0  0  0  0  0  0  0  0
    3.0000   -5.1962    0.0000 C   0  0  0  0  0  0  0  0  0  0  0  0
   -1.6317   -2.6836    0.0000 C   0  0  0  0  0  0  0  0  0  0  0  0
   -3.0583   -3.1471    0.0000 N   0  0  0  0  0  0  0  0  0  0  0  0
   -4.2718   -2.2654    0.0000 C   0  0  0  0  0  0  0  0  0  0  0  0
  1  2  1  0
  2  3  1  0
  3  4  1  0
  4  5  1  0
  5  6  1  0
  6  7  1  0
  7  8  1  0
  8  9  1  0
  5 10  1  0
 10 11  2  0
 10 12  1  0
 12 13  2  0
 13 14  1  0
 14 15  1  0
 15 16  1  0
 16 17  1  0
 17 18  2  0
 18 19  1  0
 19 20  2  0
 20 21  1  0
 21 22  2  0
 15 23  1  0
 23 24  2  0
 24 25  1  0
 25 26  2  0
 26 27  1  0
 27 28  2  0
 27 29  1  0
 26 30  1  0
 30 31  2  0
 14 32  2  0
 32 33  1  0
 33 34  1  0
 33 12  1  0
 22 17  1  0
 31 23  1  0
M  CHG  2  27   1  29  -1
M  END
>  <assay_chembl_id>  (217) 
CHEMBL1013144

>  <assay_description>  (217) 
Antagonist activity at wild type human recombinant androgen receptor assessed as inhibition of testosterone-induced growth of mouse androgen dependent SC3 cells by WST-1 method

>  <parent_molecule_chembl_id>  (217) 
CHEMBL481302

>  <canonical_smiles>  (217) 
CCCCN(CCCC)C(=O)c1cc(N(Cc2ccccc2)c2ccc([N+](=O)[O-])cc2)cn1C

>  <standard_type>  (217) 
IC50

>  <standard_relation>  (217) 
=

>  <standard_value>  (217) 
6100.0

>  <standard_units>  (217) 
nM

>  <target_pref_name>  (217) 
Androgen Receptor

>  <target_chembl_id>  (217) 
CHEMBL1871

>  <target_organism>  (217) 
Homo sapiens

>  <pchembl_median>  (217) 
7.7

$$$$
CHEMBL481139
     RDKit          2D

 30 32  0  0  0  0  0  0  0  0999 V2000
   -8.2260   -5.1903    0.0000 C   0  0  0  0  0  0  0  0  0  0  0  0
   -6.8556   -5.8004    0.0000 C   0  0  0  0  0  0  0  0  0  0  0  0
   -5.6421   -4.9187    0.0000 N   0  0  0  0  0  0  0  0  0  0  0  0
   -5.7989   -3.4269    0.0000 C   0  0  0  0  0  0  0  0  0  0  0  0
   -7.1692   -2.8168    0.0000 C   0  0  0  0  0  0  0  0  0  0  0  0
   -4.2718   -5.5288    0.0000 C   0  0  0  0  0  0  0  0  0  0  0  0
   -4.1150   -7.0206    0.0000 O   0  0  0  0  0  0  0  0  0  0  0  0
   -3.0583   -4.6471    0.0000 C   0  0  0  0  0  0  0  0  0  0  0  0
   -1.6317   -5.1106    0.0000 C   0  0  0  0  0  0  0  0  0  0  0  0
   -0.7500   -3.8971    0.0000 C   0  0  0  0  0  0  0  0  0  0  0  0
    0.7500   -3.8971    0.0000 N   0  0  0  0  0  0  0  0  0  0  0  0
    1.5000   -2.5981    0.0000 C   0  0  0  0  0  0  0  0  0  0  0  0
    0.7500   -1.2990    0.0000 C   0  0  0  0  0  0  0  0  0  0  0  0
    1.5000    0.0000    0.0000 C   0  0  0  0  0  0  0  0  0  0  0  0
    0.7500    1.2990    0.0000 C   0  0  0  0  0  0  0  0  0  0  0  0
   -0.7500    1.2990    0.0000 C   0  0  0  0  0  0  0  0  0  0  0  0
   -1.5000    0.0000    0.0000 C   0  0  0  0  0  0  0  0  0  0  0  0
   -0.7500   -1.2990    0.0000 C   0  0  0  0  0  0  0  0  0  0  0  0
    1.5000   -5.1962    0.0000 C   0  0  0  0  0  0  0  0  0  0  0  0
    0.7500   -6.4952    0.0000 C   0  0  0  0  0  0  0  0  0  0  0  0
    1.5000   -7.7942    0.0000 C   0  0  0  0  0  0  0  0  0  0  0  0
    3.0000   -7.7942    0.0000 C   0  0  0  0  0  0  0  0  0  0  0  0
    3.7500   -9.0933    0.0000 N   0  0  0  0  0  4  0  0  0  0  0  0
    5.2500   -9.0933    0.0000 O   0  0  0  0  0  0  0  0  0  0  0  0
    3.0000  -10.3923    0.0000 O   0  0  0  0  0  1  0  0  0  0  0  0
    3.7500   -6.4952    0.0000 C   0  0  0  0  0  0  0  0  0  0  0  0
    3.0000   -5.1962    0.0000 C   0  0  0  0  0  0  0  0  0  0  0  0
   -1.6317   -2.6836    0.0000 C   0  0  0  0  0  0  0  0  0  0  0  0
   -3.0583   -3.1471    0.0000 N   0  0  0  0  0  0  0  0  0  0  0  0
   -4.2718   -2.2654    0.0000 C   0  0  0  0  0  0  0  0  0  0  0  0
  1  2  1  0
  2  3  1  0
  3  4  1  0
  4  5  1  0
  3  6  1  0
  6  7  2  0
  6  8  1  0
  8  9  2  0
  9 10  1  0
 10 11  1  0
 11 12  1  0
 12 13  1  0
 13 14  2  0
 14 15  1  0
 15 16  2  0
 16 17  1  0
 17 18  2  0
 11 19  1  0
 19 20  2  0
 20 21  1  0
 21 22  2  0
 22 23  1  0
 23 24  2  0
 23 25  1  0
 22 26  1  0
 26 27  2  0
 10 28  2  0
 28 29  1  0
 29 30  1  0
 29  8  1  0
 18 13  1  0
 27 19  1  0
M  CHG  2  23   1  25  -1
M  END
>  <assay_chembl_id>  (218) 
CHEMBL1013144

>  <assay_description>  (218) 
Antagonist activity at wild type human recombinant androgen receptor assessed as inhibition of testosterone-induced growth of mouse androgen dependent SC3 cells by WST-1 method

>  <parent_molecule_chembl_id>  (218) 
CHEMBL481139

>  <canonical_smiles>  (218) 
CCN(CC)C(=O)c1cc(N(Cc2ccccc2)c2ccc([N+](=O)[O-])cc2)cn1C

>  <standard_type>  (218) 
IC50

>  <standard_relation>  (218) 
=

>  <standard_value>  (218) 
990.0

>  <standard_units>  (218) 
nM

>  <target_pref_name>  (218) 
Androgen Receptor

>  <target_chembl_id>  (218) 
CHEMBL1871

>  <target_organism>  (218) 
Homo sapiens

>  <pchembl_median>  (218) 
7.565

$$$$
CHEMBL480162
     RDKit          2D

 26 28  0  0  0  0  0  0  0  0999 V2000
   -4.2718   -5.5288    0.0000 C   0  0  0  0  0  0  0  0  0  0  0  0
   -3.0583   -4.6471    0.0000 N   0  0  0  0  0  0  0  0  0  0  0  0
   -1.6317   -5.1106    0.0000 C   0  0  0  0  0  0  0  0  0  0  0  0
   -0.7500   -3.8971    0.0000 C   0  0  0  0  0  0  0  0  0  0  0  0
    0.7500   -3.8971    0.0000 N   0  0  0  0  0  0  0  0  0  0  0  0
    1.5000   -2.5981    0.0000 C   0  0  0  0  0  0  0  0  0  0  0  0
    0.7500   -1.2990    0.0000 C   0  0  0  0  0  0  0  0  0  0  0  0
    1.5000    0.0000    0.0000 C   0  0  0  0  0  0  0  0  0  0  0  0
    0.7500    1.2990    0.0000 C   0  0  0  0  0  0  0  0  0  0  0  0
   -0.7500    1.2990    0.0000 C   0  0  0  0  0  0  0  0  0  0  0  0
   -1.5000    0.0000    0.0000 C   0  0  0  0  0  0  0  0  0  0  0  0
   -0.7500   -1.2990    0.0000 C   0  0  0  0  0  0  0  0  0  0  0  0
    1.5000   -5.1962    0.0000 C   0  0  0  0  0  0  0  0  0  0  0  0
    0.7500   -6.4952    0.0000 C   0  0  0  0  0  0  0  0  0  0  0  0
    1.5000   -7.7942    0.0000 C   0  0  0  0  0  0  0  0  0  0  0  0
    3.0000   -7.7942    0.0000 C   0  0  0  0  0  0  0  0  0  0  0  0
    3.7500   -9.0933    0.0000 N   0  0  0  0  0  4  0  0  0  0  0  0
    5.2500   -9.0933    0.0000 O   0  0  0  0  0  0  0  0  0  0  0  0
    3.0000  -10.3923    0.0000 O   0  0  0  0  0  1  0  0  0  0  0  0
    3.7500   -6.4952    0.0000 C   0  0  0  0  0  0  0  0  0  0  0  0
    3.0000   -5.1962    0.0000 C   0  0  0  0  0  0  0  0  0  0  0  0
   -1.6317   -2.6836    0.0000 C   0  0  0  0  0  0  0  0  0  0  0  0
   -3.0583   -3.1471    0.0000 C   0  0  0  0  0  0  0  0  0  0  0  0
   -4.2718   -2.2654    0.0000 C   0  0  0  0  0  0  0  0  0  0  0  0
   -4.1150   -0.7737    0.0000 N   0  0  0  0  0  0  0  0  0  0  0  0
   -5.6421   -2.8755    0.0000 O   0  0  0  0  0  0  0  0  0  0  0  0
  1  2  1  0
  2  3  1  0
  3  4  2  0
  4  5  1  0
  5  6  1  0
  6  7  1  0
  7  8  2  0
  8  9  1  0
  9 10  2  0
 10 11  1  0
 11 12  2  0
  5 13  1  0
 13 14  2  0
 14 15  1  0
 15 16  2  0
 16 17  1  0
 17 18  2  0
 17 19  1  0
 16 20  1  0
 20 21  2  0
  4 22  1  0
 22 23  2  0
 23 24  1  0
 24 25  1  0
 24 26  2  0
 23  2  1  0
 12  7  1  0
 21 13  1  0
M  CHG  2  17   1  19  -1
M  END
>  <assay_chembl_id>  (219) 
CHEMBL1013144

>  <assay_description>  (219) 
Antagonist activity at wild type human recombinant androgen receptor assessed as inhibition of testosterone-induced growth of mouse androgen dependent SC3 cells by WST-1 method

>  <parent_molecule_chembl_id>  (219) 
CHEMBL480162

>  <canonical_smiles>  (219) 
Cn1cc(N(Cc2ccccc2)c2ccc([N+](=O)[O-])cc2)cc1C(N)=O

>  <standard_type>  (219) 
IC50

>  <standard_relation>  (219) 
=

>  <standard_value>  (219) 
1950.0

>  <standard_units>  (219) 
nM

>  <target_pref_name>  (219) 
Androgen Receptor

>  <target_chembl_id>  (219) 
CHEMBL1871

>  <target_organism>  (219) 
Homo sapiens

>  <pchembl_median>  (219) 
6.84

$$$$
CHEMBL519112
     RDKit          2D

 26 28  0  0  0  0  0  0  0  0999 V2000
   -4.2718   -5.5288    0.0000 C   0  0  0  0  0  0  0  0  0  0  0  0
   -3.0583   -4.6471    0.0000 N   0  0  0  0  0  0  0  0  0  0  0  0
   -1.6317   -5.1106    0.0000 C   0  0  0  0  0  0  0  0  0  0  0  0
   -0.7500   -3.8971    0.0000 C   0  0  0  0  0  0  0  0  0  0  0  0
    0.7500   -3.8971    0.0000 N   0  0  0  0  0  0  0  0  0  0  0  0
    1.5000   -2.5981    0.0000 C   0  0  0  0  0  0  0  0  0  0  0  0
    0.7500   -1.2990    0.0000 C   0  0  0  0  0  0  0  0  0  0  0  0
    1.5000    0.0000    0.0000 C   0  0  0  0  0  0  0  0  0  0  0  0
    0.7500    1.2990    0.0000 C   0  0  0  0  0  0  0  0  0  0  0  0
   -0.7500    1.2990    0.0000 C   0  0  0  0  0  0  0  0  0  0  0  0
   -1.5000    0.0000    0.0000 C   0  0  0  0  0  0  0  0  0  0  0  0
   -0.7500   -1.2990    0.0000 C   0  0  0  0  0  0  0  0  0  0  0  0
    1.5000   -5.1962    0.0000 C   0  0  0  0  0  0  0  0  0  0  0  0
    0.7500   -6.4952    0.0000 C   0  0  0  0  0  0  0  0  0  0  0  0
    1.5000   -7.7942    0.0000 C   0  0  0  0  0  0  0  0  0  0  0  0
    3.0000   -7.7942    0.0000 C   0  0  0  0  0  0  0  0  0  0  0  0
    3.7500   -9.0933    0.0000 N   0  0  0  0  0  4  0  0  0  0  0  0
    5.2500   -9.0933    0.0000 O   0  0  0  0  0  0  0  0  0  0  0  0
    3.0000  -10.3923    0.0000 O   0  0  0  0  0  1  0  0  0  0  0  0
    3.7500   -6.4952    0.0000 C   0  0  0  0  0  0  0  0  0  0  0  0
    3.0000   -5.1962    0.0000 C   0  0  0  0  0  0  0  0  0  0  0  0
   -1.6317   -2.6836    0.0000 C   0  0  0  0  0  0  0  0  0  0  0  0
   -3.0583   -3.1471    0.0000 C   0  0  0  0  0  0  0  0  0  0  0  0
   -4.2718   -2.2654    0.0000 C   0  0  0  0  0  0  0  0  0  0  0  0
   -5.6421   -2.8755    0.0000 O   0  0  0  0  0  0  0  0  0  0  0  0
   -4.1150   -0.7737    0.0000 O   0  0  0  0  0  0  0  0  0  0  0  0
  1  2  1  0
  2  3  1  0
  3  4  2  0
  4  5  1  0
  5  6  1  0
  6  7  1  0
  7  8  2  0
  8  9  1  0
  9 10  2  0
 10 11  1  0
 11 12  2  0
  5 13  1  0
 13 14  2  0
 14 15  1  0
 15 16  2  0
 16 17  1  0
 17 18  2  0
 17 19  1  0
 16 20  1  0
 20 21  2  0
  4 22  1  0
 22 23  2  0
 23 24  1  0
 24 25  2  0
 24 26  1  0
 23  2  1  0
 12  7  1  0
 21 13  1  0
M  CHG  2  17   1  19  -1
M  END
>  <assay_chembl_id>  (220) 
CHEMBL1013144

>  <assay_description>  (220) 
Antagonist activity at wild type human recombinant androgen receptor assessed as inhibition of testosterone-induced growth of mouse androgen dependent SC3 cells by WST-1 method

>  <parent_molecule_chembl_id>  (220) 
CHEMBL519112

>  <canonical_smiles>  (220) 
Cn1cc(N(Cc2ccccc2)c2ccc([N+](=O)[O-])cc2)cc1C(=O)O

>  <standard_type>  (220) 
IC50

>  <standard_relation>  (220) 
=

>  <standard_value>  (220) 
6200.0

>  <standard_units>  (220) 
nM

>  <target_pref_name>  (220) 
Androgen Receptor

>  <target_chembl_id>  (220) 
CHEMBL1871

>  <target_organism>  (220) 
Homo sapiens

>  <pchembl_median>  (220) 
6.38

$$$$
CHEMBL480960
     RDKit          2D

 25 27  0  0  0  0  0  0  0  0999 V2000
   -4.2718   -5.5288    0.0000 C   0  0  0  0  0  0  0  0  0  0  0  0
   -3.0583   -4.6471    0.0000 N   0  0  0  0  0  0  0  0  0  0  0  0
   -1.6317   -5.1106    0.0000 C   0  0  0  0  0  0  0  0  0  0  0  0
   -0.7500   -3.8971    0.0000 C   0  0  0  0  0  0  0  0  0  0  0  0
    0.7500   -3.8971    0.0000 N   0  0  0  0  0  0  0  0  0  0  0  0
    1.5000   -2.5981    0.0000 C   0  0  0  0  0  0  0  0  0  0  0  0
    0.7500   -1.2990    0.0000 C   0  0  0  0  0  0  0  0  0  0  0  0
    1.5000    0.0000    0.0000 C   0  0  0  0  0  0  0  0  0  0  0  0
    0.7500    1.2990    0.0000 C   0  0  0  0  0  0  0  0  0  0  0  0
   -0.7500    1.2990    0.0000 C   0  0  0  0  0  0  0  0  0  0  0  0
   -1.5000    0.0000    0.0000 C   0  0  0  0  0  0  0  0  0  0  0  0
   -0.7500   -1.2990    0.0000 C   0  0  0  0  0  0  0  0  0  0  0  0
    1.5000   -5.1962    0.0000 C   0  0  0  0  0  0  0  0  0  0  0  0
    0.7500   -6.4952    0.0000 C   0  0  0  0  0  0  0  0  0  0  0  0
    1.5000   -7.7942    0.0000 C   0  0  0  0  0  0  0  0  0  0  0  0
    3.0000   -7.7942    0.0000 C   0  0  0  0  0  0  0  0  0  0  0  0
    3.7500   -9.0933    0.0000 N   0  0  0  0  0  4  0  0  0  0  0  0
    5.2500   -9.0933    0.0000 O   0  0  0  0  0  0  0  0  0  0  0  0
    3.0000  -10.3923    0.0000 O   0  0  0  0  0  1  0  0  0  0  0  0
    3.7500   -6.4952    0.0000 C   0  0  0  0  0  0  0  0  0  0  0  0
    3.0000   -5.1962    0.0000 C   0  0  0  0  0  0  0  0  0  0  0  0
   -1.6317   -2.6836    0.0000 C   0  0  0  0  0  0  0  0  0  0  0  0
   -3.0583   -3.1471    0.0000 C   0  0  0  0  0  0  0  0  0  0  0  0
   -4.2718   -2.2654    0.0000 C   0  0  0  0  0  0  0  0  0  0  0  0
   -4.1150   -0.7737    0.0000 O   0  0  0  0  0  0  0  0  0  0  0  0
  1  2  1  0
  2  3  1  0
  3  4  2  0
  4  5  1  0
  5  6  1  0
  6  7  1  0
  7  8  2  0
  8  9  1  0
  9 10  2  0
 10 11  1  0
 11 12  2  0
  5 13  1  0
 13 14  2  0
 14 15  1  0
 15 16  2  0
 16 17  1  0
 17 18  2  0
 17 19  1  0
 16 20  1  0
 20 21  2  0
  4 22  1  0
 22 23  2  0
 23 24  1  0
 24 25  1  0
 23  2  1  0
 12  7  1  0
 21 13  1  0
M  CHG  2  17   1  19  -1
M  END
>  <assay_chembl_id>  (221) 
CHEMBL1013144

>  <assay_description>  (221) 
Antagonist activity at wild type human recombinant androgen receptor assessed as inhibition of testosterone-induced growth of mouse androgen dependent SC3 cells by WST-1 method

>  <parent_molecule_chembl_id>  (221) 
CHEMBL480960

>  <canonical_smiles>  (221) 
Cn1cc(N(Cc2ccccc2)c2ccc([N+](=O)[O-])cc2)cc1CO

>  <standard_type>  (221) 
IC50

>  <standard_relation>  (221) 
=

>  <standard_value>  (221) 
2100.0

>  <standard_units>  (221) 
nM

>  <target_pref_name>  (221) 
Androgen Receptor

>  <target_chembl_id>  (221) 
CHEMBL1871

>  <target_organism>  (221) 
Homo sapiens

>  <pchembl_median>  (221) 
5.72

$$$$
CHEMBL521251
     RDKit          2D

 28 30  0  0  0  0  0  0  0  0999 V2000
   -8.2260   -5.1903    0.0000 C   0  0  0  0  0  0  0  0  0  0  0  0
   -6.8556   -5.8004    0.0000 C   0  0  0  0  0  0  0  0  0  0  0  0
   -5.6421   -4.9187    0.0000 O   0  0  0  0  0  0  0  0  0  0  0  0
   -4.2718   -5.5288    0.0000 C   0  0  0  0  0  0  0  0  0  0  0  0
   -4.1150   -7.0206    0.0000 O   0  0  0  0  0  0  0  0  0  0  0  0
   -3.0583   -4.6471    0.0000 C   0  0  0  0  0  0  0  0  0  0  0  0
   -1.6317   -5.1106    0.0000 C   0  0  0  0  0  0  0  0  0  0  0  0
   -0.7500   -3.8971    0.0000 C   0  0  0  0  0  0  0  0  0  0  0  0
    0.7500   -3.8971    0.0000 N   0  0  0  0  0  0  0  0  0  0  0  0
    1.5000   -2.5981    0.0000 C   0  0  0  0  0  0  0  0  0  0  0  0
    0.7500   -1.2990    0.0000 C   0  0  0  0  0  0  0  0  0  0  0  0
    1.5000    0.0000    0.0000 C   0  0  0  0  0  0  0  0  0  0  0  0
    0.7500    1.2990    0.0000 C   0  0  0  0  0  0  0  0  0  0  0  0
   -0.7500    1.2990    0.0000 C   0  0  0  0  0  0  0  0  0  0  0  0
   -1.5000    0.0000    0.0000 C   0  0  0  0  0  0  0  0  0  0  0  0
   -0.7500   -1.2990    0.0000 C   0  0  0  0  0  0  0  0  0  0  0  0
    1.5000   -5.1962    0.0000 C   0  0  0  0  0  0  0  0  0  0  0  0
    0.7500   -6.4952    0.0000 C   0  0  0  0  0  0  0  0  0  0  0  0
    1.5000   -7.7942    0.0000 C   0  0  0  0  0  0  0  0  0  0  0  0
    3.0000   -7.7942    0.0000 C   0  0  0  0  0  0  0  0  0  0  0  0
    3.7500   -9.0933    0.0000 N   0  0  0  0  0  4  0  0  0  0  0  0
    5.2500   -9.0933    0.0000 O   0  0  0  0  0  0  0  0  0  0  0  0
    3.0000  -10.3923    0.0000 O   0  0  0  0  0  1  0  0  0  0  0  0
    3.7500   -6.4952    0.0000 C   0  0  0  0  0  0  0  0  0  0  0  0
    3.0000   -5.1962    0.0000 C   0  0  0  0  0  0  0  0  0  0  0  0
   -1.6317   -2.6836    0.0000 C   0  0  0  0  0  0  0  0  0  0  0  0
   -3.0583   -3.1471    0.0000 N   0  0  0  0  0  0  0  0  0  0  0  0
   -4.2718   -2.2654    0.0000 C   0  0  0  0  0  0  0  0  0  0  0  0
  1  2  1  0
  2  3  1  0
  3  4  1  0
  4  5  2  0
  4  6  1  0
  6  7  2  0
  7  8  1  0
  8  9  1  0
  9 10  1  0
 10 11  1  0
 11 12  2  0
 12 13  1  0
 13 14  2  0
 14 15  1  0
 15 16  2  0
  9 17  1  0
 17 18  2  0
 18 19  1  0
 19 20  2  0
 20 21  1  0
 21 22  2  0
 21 23  1  0
 20 24  1  0
 24 25  2  0
  8 26  2  0
 26 27  1  0
 27 28  1  0
 27  6  1  0
 16 11  1  0
 25 17  1  0
M  CHG  2  21   1  23  -1
M  END
>  <assay_chembl_id>  (222) 
CHEMBL1013144

>  <assay_description>  (222) 
Antagonist activity at wild type human recombinant androgen receptor assessed as inhibition of testosterone-induced growth of mouse androgen dependent SC3 cells by WST-1 method

>  <parent_molecule_chembl_id>  (222) 
CHEMBL521251

>  <canonical_smiles>  (222) 
CCOC(=O)c1cc(N(Cc2ccccc2)c2ccc([N+](=O)[O-])cc2)cn1C

>  <standard_type>  (222) 
IC50

>  <standard_relation>  (222) 
=

>  <standard_value>  (222) 
950.0

>  <standard_units>  (222) 
nM

>  <target_pref_name>  (222) 
Androgen Receptor

>  <target_chembl_id>  (222) 
CHEMBL1871

>  <target_organism>  (222) 
Homo sapiens

>  <pchembl_median>  (222) 
4.58

$$$$
CHEMBL480959
     RDKit          2D

 31 34  0  0  0  0  0  0  0  0999 V2000
    5.2500   -1.2990    0.0000 C   0  0  0  0  0  0  0  0  0  0  0  0
    3.7500   -1.2990    0.0000 O   0  0  0  0  0  0  0  0  0  0  0  0
    3.0000    0.0000    0.0000 C   0  0  0  0  0  0  0  0  0  0  0  0
    3.7500    1.2990    0.0000 O   0  0  0  0  0  0  0  0  0  0  0  0
    1.5000    0.0000    0.0000 C   0  0  0  0  0  0  0  0  0  0  0  0
    0.7500   -1.2990    0.0000 C   0  0  0  0  0  0  0  0  0  0  0  0
   -0.7500   -1.2990    0.0000 C   0  0  0  0  0  0  0  0  0  0  0  0
   -1.5000    0.0000    0.0000 C   0  0  0  0  0  0  0  0  0  0  0  0
   -3.0000    0.0000    0.0000 N   0  0  0  0  0  0  0  0  0  0  0  0
   -3.7500    1.2990    0.0000 C   0  0  0  0  0  0  0  0  0  0  0  0
   -5.2500    1.2990    0.0000 C   0  0  0  0  0  0  0  0  0  0  0  0
   -6.0000    2.5981    0.0000 C   0  0  0  0  0  0  0  0  0  0  0  0
   -7.5000    2.5981    0.0000 C   0  0  0  0  0  0  0  0  0  0  0  0
   -8.2500    1.2990    0.0000 C   0  0  0  0  0  0  0  0  0  0  0  0
   -7.5000    0.0000    0.0000 C   0  0  0  0  0  0  0  0  0  0  0  0
   -6.0000    0.0000    0.0000 C   0  0  0  0  0  0  0  0  0  0  0  0
   -3.7500   -1.2990    0.0000 C   0  0  0  0  0  0  0  0  0  0  0  0
   -3.1399   -2.6694    0.0000 C   0  0  0  0  0  0  0  0  0  0  0  0
   -4.2546   -3.6731    0.0000 C   0  0  0  0  0  0  0  0  0  0  0  0
   -4.0978   -5.1648    0.0000 C   0  0  0  0  0  0  0  0  0  0  0  0
   -2.7275   -5.7749    0.0000 O   0  0  0  0  0  0  0  0  0  0  0  0
   -5.3113   -6.0465    0.0000 N   0  0  0  0  0  0  0  0  0  0  0  0
   -5.3113   -7.5465    0.0000 C   0  0  0  0  0  0  0  0  0  0  0  0
   -6.7379   -8.0100    0.0000 C   0  0  0  0  0  0  0  0  0  0  0  0
   -7.6196   -6.7965    0.0000 C   0  0  0  0  0  0  0  0  0  0  0  0
   -6.7379   -5.5830    0.0000 C   0  0  0  0  0  0  0  0  0  0  0  0
   -5.5537   -2.9231    0.0000 N   0  0  0  0  0  0  0  0  0  0  0  0
   -6.9240   -3.5332    0.0000 C   0  0  0  0  0  0  0  0  0  0  0  0
   -5.2418   -1.4558    0.0000 C   0  0  0  0  0  0  0  0  0  0  0  0
   -0.7500    1.2990    0.0000 C   0  0  0  0  0  0  0  0  0  0  0  0
    0.7500    1.2990    0.0000 C   0  0  0  0  0  0  0  0  0  0  0  0
  1  2  1  0
  2  3  1  0
  3  4  2  0
  3  5  1  0
  5  6  2  0
  6  7  1  0
  7  8  2  0
  8  9  1  0
  9 10  1  0
 10 11  1  0
 11 12  2  0
 12 13  1  0
 13 14  2  0
 14 15  1  0
 15 16  2  0
  9 17  1  0
 17 18  1  0
 18 19  2  0
 19 20  1  0
 20 21  2  0
 20 22  1  0
 22 23  1  0
 23 24  1  0
 24 25  1  0
 25 26  1  0
 19 27  1  0
 27 28  1  0
 27 29  1  0
  8 30  1  0
 30 31  2  0
 31  5  1  0
 16 11  1  0
 29 17  2  0
 26 22  1  0
M  END
>  <assay_chembl_id>  (223) 
CHEMBL1013144

>  <assay_description>  (223) 
Antagonist activity at wild type human recombinant androgen receptor assessed as inhibition of testosterone-induced growth of mouse androgen dependent SC3 cells by WST-1 method

>  <parent_molecule_chembl_id>  (223) 
CHEMBL480959

>  <canonical_smiles>  (223) 
COC(=O)c1ccc(N(Cc2ccccc2)c2cc(C(=O)N3CCCC3)n(C)c2)cc1

>  <standard_type>  (223) 
IC50

>  <standard_relation>  (223) 
=

>  <standard_value>  (223) 
6100.0

>  <standard_units>  (223) 
nM

>  <target_pref_name>  (223) 
Androgen Receptor

>  <target_chembl_id>  (223) 
CHEMBL1871

>  <target_organism>  (223) 
Homo sapiens

>  <pchembl_median>  (223) 
6.645

$$$$
CHEMBL479988
     RDKit          2D

 30 33  0  0  0  0  0  0  0  0999 V2000
    3.7500   -1.2990    0.0000 C   0  0  0  0  0  0  0  0  0  0  0  0
    3.0000    0.0000    0.0000 C   0  0  0  0  0  0  0  0  0  0  0  0
    3.7500    1.2990    0.0000 O   0  0  0  0  0  0  0  0  0  0  0  0
    1.5000    0.0000    0.0000 C   0  0  0  0  0  0  0  0  0  0  0  0
    0.7500   -1.2990    0.0000 C   0  0  0  0  0  0  0  0  0  0  0  0
   -0.7500   -1.2990    0.0000 C   0  0  0  0  0  0  0  0  0  0  0  0
   -1.5000    0.0000    0.0000 C   0  0  0  0  0  0  0  0  0  0  0  0
   -3.0000    0.0000    0.0000 N   0  0  0  0  0  0  0  0  0  0  0  0
   -3.7500    1.2990    0.0000 C   0  0  0  0  0  0  0  0  0  0  0  0
   -5.2500    1.2990    0.0000 C   0  0  0  0  0  0  0  0  0  0  0  0
   -6.0000    2.5981    0.0000 C   0  0  0  0  0  0  0  0  0  0  0  0
   -7.5000    2.5981    0.0000 C   0  0  0  0  0  0  0  0  0  0  0  0
   -8.2500    1.2990    0.0000 C   0  0  0  0  0  0  0  0  0  0  0  0
   -7.5000    0.0000    0.0000 C   0  0  0  0  0  0  0  0  0  0  0  0
   -6.0000    0.0000    0.0000 C   0  0  0  0  0  0  0  0  0  0  0  0
   -3.7500   -1.2990    0.0000 C   0  0  0  0  0  0  0  0  0  0  0  0
   -3.1399   -2.6694    0.0000 C   0  0  0  0  0  0  0  0  0  0  0  0
   -4.2546   -3.6731    0.0000 C   0  0  0  0  0  0  0  0  0  0  0  0
   -4.0978   -5.1648    0.0000 C   0  0  0  0  0  0  0  0  0  0  0  0
   -2.7275   -5.7749    0.0000 O   0  0  0  0  0  0  0  0  0  0  0  0
   -5.3113   -6.0465    0.0000 N   0  0  0  0  0  0  0  0  0  0  0  0
   -5.3113   -7.5465    0.0000 C   0  0  0  0  0  0  0  0  0  0  0  0
   -6.7379   -8.0100    0.0000 C   0  0  0  0  0  0  0  0  0  0  0  0
   -7.6196   -6.7965    0.0000 C   0  0  0  0  0  0  0  0  0  0  0  0
   -6.7379   -5.5830    0.0000 C   0  0  0  0  0  0  0  0  0  0  0  0
   -5.5537   -2.9231    0.0000 N   0  0  0  0  0  0  0  0  0  0  0  0
   -6.9240   -3.5332    0.0000 C   0  0  0  0  0  0  0  0  0  0  0  0
   -5.2418   -1.4558    0.0000 C   0  0  0  0  0  0  0  0  0  0  0  0
   -0.7500    1.2990    0.0000 C   0  0  0  0  0  0  0  0  0  0  0  0
    0.7500    1.2990    0.0000 C   0  0  0  0  0  0  0  0  0  0  0  0
  1  2  1  0
  2  3  2  0
  2  4  1  0
  4  5  2  0
  5  6  1  0
  6  7  2  0
  7  8  1  0
  8  9  1  0
  9 10  1  0
 10 11  2  0
 11 12  1  0
 12 13  2  0
 13 14  1  0
 14 15  2  0
  8 16  1  0
 16 17  1  0
 17 18  2  0
 18 19  1  0
 19 20  2  0
 19 21  1  0
 21 22  1  0
 22 23  1  0
 23 24  1  0
 24 25  1  0
 18 26  1  0
 26 27  1  0
 26 28  1  0
  7 29  1  0
 29 30  2  0
 30  4  1  0
 15 10  1  0
 28 16  2  0
 25 21  1  0
M  END
>  <assay_chembl_id>  (224) 
CHEMBL1013144

>  <assay_description>  (224) 
Antagonist activity at wild type human recombinant androgen receptor assessed as inhibition of testosterone-induced growth of mouse androgen dependent SC3 cells by WST-1 method

>  <parent_molecule_chembl_id>  (224) 
CHEMBL479988

>  <canonical_smiles>  (224) 
CC(=O)c1ccc(N(Cc2ccccc2)c2cc(C(=O)N3CCCC3)n(C)c2)cc1

>  <standard_type>  (224) 
IC50

>  <standard_relation>  (224) 
=

>  <standard_value>  (224) 
2000.0

>  <standard_units>  (224) 
nM

>  <target_pref_name>  (224) 
Androgen Receptor

>  <target_chembl_id>  (224) 
CHEMBL1871

>  <target_organism>  (224) 
Homo sapiens

>  <pchembl_median>  (224) 
4.54

$$$$
CHEMBL521249
     RDKit          2D

 31 34  0  0  0  0  0  0  0  0999 V2000
   -4.2718   -5.5288    0.0000 C   0  0  0  0  0  0  0  0  0  0  0  0
   -3.0583   -4.6471    0.0000 N   0  0  0  0  0  0  0  0  0  0  0  0
   -1.6317   -5.1106    0.0000 C   0  0  0  0  0  0  0  0  0  0  0  0
   -0.7500   -3.8971    0.0000 C   0  0  0  0  0  0  0  0  0  0  0  0
    0.7500   -3.8971    0.0000 N   0  0  0  0  0  0  0  0  0  0  0  0
    1.5000   -2.5981    0.0000 C   0  0  0  0  0  0  0  0  0  0  0  0
    0.7500   -1.2990    0.0000 C   0  0  0  0  0  0  0  0  0  0  0  0
    1.5000    0.0000    0.0000 C   0  0  0  0  0  0  0  0  0  0  0  0
    0.7500    1.2990    0.0000 C   0  0  0  0  0  0  0  0  0  0  0  0
   -0.7500    1.2990    0.0000 C   0  0  0  0  0  0  0  0  0  0  0  0
   -1.5000    0.0000    0.0000 C   0  0  0  0  0  0  0  0  0  0  0  0
   -0.7500   -1.2990    0.0000 C   0  0  0  0  0  0  0  0  0  0  0  0
    1.5000   -5.1962    0.0000 C   0  0  0  0  0  0  0  0  0  0  0  0
    0.7500   -6.4952    0.0000 C   0  0  0  0  0  0  0  0  0  0  0  0
    1.5000   -7.7942    0.0000 C   0  0  0  0  0  0  0  0  0  0  0  0
    3.0000   -7.7942    0.0000 C   0  0  0  0  0  0  0  0  0  0  0  0
    3.7500   -9.0933    0.0000 C   0  0  0  0  0  0  0  0  0  0  0  0
    4.5000  -10.3923    0.0000 F   0  0  0  0  0  0  0  0  0  0  0  0
    2.4510   -9.8433    0.0000 F   0  0  0  0  0  0  0  0  0  0  0  0
    5.0490   -8.3433    0.0000 F   0  0  0  0  0  0  0  0  0  0  0  0
    3.7500   -6.4952    0.0000 C   0  0  0  0  0  0  0  0  0  0  0  0
    3.0000   -5.1962    0.0000 C   0  0  0  0  0  0  0  0  0  0  0  0
   -1.6317   -2.6836    0.0000 C   0  0  0  0  0  0  0  0  0  0  0  0
   -3.0583   -3.1471    0.0000 C   0  0  0  0  0  0  0  0  0  0  0  0
   -4.2718   -2.2654    0.0000 C   0  0  0  0  0  0  0  0  0  0  0  0
   -5.6421   -2.8755    0.0000 O   0  0  0  0  0  0  0  0  0  0  0  0
   -4.1150   -0.7737    0.0000 N   0  0  0  0  0  0  0  0  0  0  0  0
   -5.2297    0.2300    0.0000 C   0  0  0  0  0  0  0  0  0  0  0  0
   -4.6196    1.6004    0.0000 C   0  0  0  0  0  0  0  0  0  0  0  0
   -3.1278    1.4436    0.0000 C   0  0  0  0  0  0  0  0  0  0  0  0
   -2.8160   -0.0237    0.0000 C   0  0  0  0  0  0  0  0  0  0  0  0
  1  2  1  0
  2  3  1  0
  3  4  2  0
  4  5  1  0
  5  6  1  0
  6  7  1  0
  7  8  2  0
  8  9  1  0
  9 10  2  0
 10 11  1  0
 11 12  2  0
  5 13  1  0
 13 14  2  0
 14 15  1  0
 15 16  2  0
 16 17  1  0
 17 18  1  0
 17 19  1  0
 17 20  1  0
 16 21  1  0
 21 22  2  0
  4 23  1  0
 23 24  2  0
 24 25  1  0
 25 26  2  0
 25 27  1  0
 27 28  1  0
 28 29  1  0
 29 30  1  0
 30 31  1  0
 24  2  1  0
 31 27  1  0
 12  7  1  0
 22 13  1  0
M  END
>  <assay_chembl_id>  (225) 
CHEMBL1013144

>  <assay_description>  (225) 
Antagonist activity at wild type human recombinant androgen receptor assessed as inhibition of testosterone-induced growth of mouse androgen dependent SC3 cells by WST-1 method

>  <parent_molecule_chembl_id>  (225) 
CHEMBL521249

>  <canonical_smiles>  (225) 
Cn1cc(N(Cc2ccccc2)c2ccc(C(F)(F)F)cc2)cc1C(=O)N1CCCC1

>  <standard_type>  (225) 
IC50

>  <standard_relation>  (225) 
=

>  <standard_value>  (225) 
1700.0

>  <standard_units>  (225) 
nM

>  <target_pref_name>  (225) 
Androgen Receptor

>  <target_chembl_id>  (225) 
CHEMBL1871

>  <target_organism>  (225) 
Homo sapiens

>  <pchembl_median>  (225) 
5.88

$$$$
CHEMBL480955
     RDKit          2D

 29 32  0  0  0  0  0  0  0  0999 V2000
   -4.2718   -5.5288    0.0000 C   0  0  0  0  0  0  0  0  0  0  0  0
   -3.0583   -4.6471    0.0000 N   0  0  0  0  0  0  0  0  0  0  0  0
   -1.6317   -5.1106    0.0000 C   0  0  0  0  0  0  0  0  0  0  0  0
   -0.7500   -3.8971    0.0000 C   0  0  0  0  0  0  0  0  0  0  0  0
    0.7500   -3.8971    0.0000 N   0  0  0  0  0  0  0  0  0  0  0  0
    1.5000   -2.5981    0.0000 C   0  0  0  0  0  0  0  0  0  0  0  0
    0.7500   -1.2990    0.0000 C   0  0  0  0  0  0  0  0  0  0  0  0
    1.5000    0.0000    0.0000 C   0  0  0  0  0  0  0  0  0  0  0  0
    0.7500    1.2990    0.0000 C   0  0  0  0  0  0  0  0  0  0  0  0
   -0.7500    1.2990    0.0000 C   0  0  0  0  0  0  0  0  0  0  0  0
   -1.5000    0.0000    0.0000 C   0  0  0  0  0  0  0  0  0  0  0  0
   -0.7500   -1.2990    0.0000 C   0  0  0  0  0  0  0  0  0  0  0  0
    1.5000   -5.1962    0.0000 C   0  0  0  0  0  0  0  0  0  0  0  0
    0.7500   -6.4952    0.0000 C   0  0  0  0  0  0  0  0  0  0  0  0
    1.5000   -7.7942    0.0000 C   0  0  0  0  0  0  0  0  0  0  0  0
    3.0000   -7.7942    0.0000 C   0  0  0  0  0  0  0  0  0  0  0  0
    3.7500   -9.0933    0.0000 C   0  0  0  0  0  0  0  0  0  0  0  0
    4.5000  -10.3923    0.0000 N   0  0  0  0  0  0  0  0  0  0  0  0
    3.7500   -6.4952    0.0000 C   0  0  0  0  0  0  0  0  0  0  0  0
    3.0000   -5.1962    0.0000 C   0  0  0  0  0  0  0  0  0  0  0  0
   -1.6317   -2.6836    0.0000 C   0  0  0  0  0  0  0  0  0  0  0  0
   -3.0583   -3.1471    0.0000 C   0  0  0  0  0  0  0  0  0  0  0  0
   -4.2718   -2.2654    0.0000 C   0  0  0  0  0  0  0  0  0  0  0  0
   -5.6421   -2.8755    0.0000 O   0  0  0  0  0  0  0  0  0  0  0  0
   -4.1150   -0.7737    0.0000 N   0  0  0  0  0  0  0  0  0  0  0  0
   -5.2297    0.2300    0.0000 C   0  0  0  0  0  0  0  0  0  0  0  0
   -4.6196    1.6004    0.0000 C   0  0  0  0  0  0  0  0  0  0  0  0
   -3.1278    1.4436    0.0000 C   0  0  0  0  0  0  0  0  0  0  0  0
   -2.8160   -0.0237    0.0000 C   0  0  0  0  0  0  0  0  0  0  0  0
  1  2  1  0
  2  3  1  0
  3  4  2  0
  4  5  1  0
  5  6  1  0
  6  7  1  0
  7  8  2  0
  8  9  1  0
  9 10  2  0
 10 11  1  0
 11 12  2  0
  5 13  1  0
 13 14  2  0
 14 15  1  0
 15 16  2  0
 16 17  1  0
 17 18  3  0
 16 19  1  0
 19 20  2  0
  4 21  1  0
 21 22  2  0
 22 23  1  0
 23 24  2  0
 23 25  1  0
 25 26  1  0
 26 27  1  0
 27 28  1  0
 28 29  1  0
 22  2  1  0
 29 25  1  0
 12  7  1  0
 20 13  1  0
M  END
>  <assay_chembl_id>  (226) 
CHEMBL1013144

>  <assay_description>  (226) 
Antagonist activity at wild type human recombinant androgen receptor assessed as inhibition of testosterone-induced growth of mouse androgen dependent SC3 cells by WST-1 method

>  <parent_molecule_chembl_id>  (226) 
CHEMBL480955

>  <canonical_smiles>  (226) 
Cn1cc(N(Cc2ccccc2)c2ccc(C#N)cc2)cc1C(=O)N1CCCC1

>  <standard_type>  (226) 
IC50

>  <standard_relation>  (226) 
=

>  <standard_value>  (226) 
610.0

>  <standard_units>  (226) 
nM

>  <target_pref_name>  (226) 
Androgen Receptor

>  <target_chembl_id>  (226) 
CHEMBL1871

>  <target_organism>  (226) 
Homo sapiens

>  <pchembl_median>  (226) 
6.47

$$$$
CHEMBL481924
     RDKit          2D

 34 37  0  0  0  0  0  0  0  0999 V2000
   -4.2718   -5.5288    0.0000 C   0  0  0  0  0  0  0  0  0  0  0  0
   -3.0583   -4.6471    0.0000 N   0  0  0  0  0  0  0  0  0  0  0  0
   -1.6317   -5.1106    0.0000 C   0  0  0  0  0  0  0  0  0  0  0  0
   -0.7500   -3.8971    0.0000 C   0  0  0  0  0  0  0  0  0  0  0  0
    0.7500   -3.8971    0.0000 N   0  0  0  0  0  0  0  0  0  0  0  0
    1.5000   -2.5981    0.0000 C   0  0  0  0  0  0  0  0  0  0  0  0
    0.7500   -1.2990    0.0000 C   0  0  0  0  0  0  0  0  0  0  0  0
    1.5000    0.0000    0.0000 C   0  0  0  0  0  0  0  0  0  0  0  0
    0.7500    1.2990    0.0000 C   0  0  0  0  0  0  0  0  0  0  0  0
   -0.7500    1.2990    0.0000 C   0  0  0  0  0  0  0  0  0  0  0  0
   -1.5000    0.0000    0.0000 C   0  0  0  0  0  0  0  0  0  0  0  0
   -0.7500   -1.2990    0.0000 C   0  0  0  0  0  0  0  0  0  0  0  0
    1.5000   -5.1962    0.0000 C   0  0  0  0  0  0  0  0  0  0  0  0
    0.7500   -6.4952    0.0000 C   0  0  0  0  0  0  0  0  0  0  0  0
    1.5000   -7.7942    0.0000 C   0  0  0  0  0  0  0  0  0  0  0  0
    3.0000   -7.7942    0.0000 C   0  0  0  0  0  0  0  0  0  0  0  0
    3.7500   -9.0933    0.0000 N   0  0  0  0  0  4  0  0  0  0  0  0
    5.2500   -9.0933    0.0000 O   0  0  0  0  0  0  0  0  0  0  0  0
    3.0000  -10.3923    0.0000 O   0  0  0  0  0  1  0  0  0  0  0  0
    3.7500   -6.4952    0.0000 C   0  0  0  0  0  0  0  0  0  0  0  0
    5.2500   -6.4952    0.0000 C   0  0  0  0  0  0  0  0  0  0  0  0
    6.7500   -6.4952    0.0000 F   0  0  0  0  0  0  0  0  0  0  0  0
    5.2500   -4.9952    0.0000 F   0  0  0  0  0  0  0  0  0  0  0  0
    5.2500   -7.9952    0.0000 F   0  0  0  0  0  0  0  0  0  0  0  0
    3.0000   -5.1962    0.0000 C   0  0  0  0  0  0  0  0  0  0  0  0
   -1.6317   -2.6836    0.0000 C   0  0  0  0  0  0  0  0  0  0  0  0
   -3.0583   -3.1471    0.0000 C   0  0  0  0  0  0  0  0  0  0  0  0
   -4.2718   -2.2654    0.0000 C   0  0  0  0  0  0  0  0  0  0  0  0
   -5.6421   -2.8755    0.0000 O   0  0  0  0  0  0  0  0  0  0  0  0
   -4.1150   -0.7737    0.0000 N   0  0  0  0  0  0  0  0  0  0  0  0
   -5.2297    0.2300    0.0000 C   0  0  0  0  0  0  0  0  0  0  0  0
   -4.6196    1.6004    0.0000 C   0  0  0  0  0  0  0  0  0  0  0  0
   -3.1278    1.4436    0.0000 C   0  0  0  0  0  0  0  0  0  0  0  0
   -2.8160   -0.0237    0.0000 C   0  0  0  0  0  0  0  0  0  0  0  0
  1  2  1  0
  2  3  1  0
  3  4  2  0
  4  5  1  0
  5  6  1  0
  6  7  1  0
  7  8  2  0
  8  9  1  0
  9 10  2  0
 10 11  1  0
 11 12  2  0
  5 13  1  0
 13 14  2  0
 14 15  1  0
 15 16  2  0
 16 17  1  0
 17 18  2  0
 17 19  1  0
 16 20  1  0
 20 21  1  0
 21 22  1  0
 21 23  1  0
 21 24  1  0
 20 25  2  0
  4 26  1  0
 26 27  2  0
 27 28  1  0
 28 29  2  0
 28 30  1  0
 30 31  1  0
 31 32  1  0
 32 33  1  0
 33 34  1  0
 27  2  1  0
 34 30  1  0
 12  7  1  0
 25 13  1  0
M  CHG  2  17   1  19  -1
M  END
>  <assay_chembl_id>  (227) 
CHEMBL1013144

>  <assay_description>  (227) 
Antagonist activity at wild type human recombinant androgen receptor assessed as inhibition of testosterone-induced growth of mouse androgen dependent SC3 cells by WST-1 method

>  <parent_molecule_chembl_id>  (227) 
CHEMBL481924

>  <canonical_smiles>  (227) 
Cn1cc(N(Cc2ccccc2)c2ccc([N+](=O)[O-])c(C(F)(F)F)c2)cc1C(=O)N1CCCC1

>  <standard_type>  (227) 
IC50

>  <standard_relation>  (227) 
=

>  <standard_value>  (227) 
2500.0

>  <standard_units>  (227) 
nM

>  <target_pref_name>  (227) 
Androgen Receptor

>  <target_chembl_id>  (227) 
CHEMBL1871

>  <target_organism>  (227) 
Homo sapiens

>  <pchembl_median>  (227) 
6.105

$$$$
CHEMBL481746
     RDKit          2D

 32 35  0  0  0  0  0  0  0  0999 V2000
   -4.2718   -5.5288    0.0000 C   0  0  0  0  0  0  0  0  0  0  0  0
   -3.0583   -4.6471    0.0000 N   0  0  0  0  0  0  0  0  0  0  0  0
   -1.6317   -5.1106    0.0000 C   0  0  0  0  0  0  0  0  0  0  0  0
   -0.7500   -3.8971    0.0000 C   0  0  0  0  0  0  0  0  0  0  0  0
    0.7500   -3.8971    0.0000 N   0  0  0  0  0  0  0  0  0  0  0  0
    1.5000   -2.5981    0.0000 C   0  0  0  0  0  0  0  0  0  0  0  0
    0.7500   -1.2990    0.0000 C   0  0  0  0  0  0  0  0  0  0  0  0
    1.5000    0.0000    0.0000 C   0  0  0  0  0  0  0  0  0  0  0  0
    0.7500    1.2990    0.0000 C   0  0  0  0  0  0  0  0  0  0  0  0
   -0.7500    1.2990    0.0000 C   0  0  0  0  0  0  0  0  0  0  0  0
   -1.5000    2.5981    0.0000 C   0  0  0  0  0  0  0  0  0  0  0  0
   -0.7500    3.8971    0.0000 O   0  0  0  0  0  0  0  0  0  0  0  0
   -1.5000    0.0000    0.0000 C   0  0  0  0  0  0  0  0  0  0  0  0
   -0.7500   -1.2990    0.0000 C   0  0  0  0  0  0  0  0  0  0  0  0
    1.5000   -5.1962    0.0000 C   0  0  0  0  0  0  0  0  0  0  0  0
    0.7500   -6.4952    0.0000 C   0  0  0  0  0  0  0  0  0  0  0  0
    1.5000   -7.7942    0.0000 C   0  0  0  0  0  0  0  0  0  0  0  0
    3.0000   -7.7942    0.0000 C   0  0  0  0  0  0  0  0  0  0  0  0
    3.7500   -9.0933    0.0000 N   0  0  0  0  0  4  0  0  0  0  0  0
    5.2500   -9.0933    0.0000 O   0  0  0  0  0  0  0  0  0  0  0  0
    3.0000  -10.3923    0.0000 O   0  0  0  0  0  1  0  0  0  0  0  0
    3.7500   -6.4952    0.0000 C   0  0  0  0  0  0  0  0  0  0  0  0
    3.0000   -5.1962    0.0000 C   0  0  0  0  0  0  0  0  0  0  0  0
   -1.6317   -2.6836    0.0000 C   0  0  0  0  0  0  0  0  0  0  0  0
   -3.0583   -3.1471    0.0000 C   0  0  0  0  0  0  0  0  0  0  0  0
   -4.2718   -2.2654    0.0000 C   0  0  0  0  0  0  0  0  0  0  0  0
   -5.6421   -2.8755    0.0000 O   0  0  0  0  0  0  0  0  0  0  0  0
   -4.1150   -0.7737    0.0000 N   0  0  0  0  0  0  0  0  0  0  0  0
   -5.2297    0.2300    0.0000 C   0  0  0  0  0  0  0  0  0  0  0  0
   -4.6196    1.6004    0.0000 C   0  0  0  0  0  0  0  0  0  0  0  0
   -3.1278    1.4436    0.0000 C   0  0  0  0  0  0  0  0  0  0  0  0
   -2.8160   -0.0237    0.0000 C   0  0  0  0  0  0  0  0  0  0  0  0
  1  2  1  0
  2  3  1  0
  3  4  2  0
  4  5  1  0
  5  6  1  0
  6  7  1  0
  7  8  2  0
  8  9  1  0
  9 10  2  0
 10 11  1  0
 11 12  1  0
 10 13  1  0
 13 14  2  0
  5 15  1  0
 15 16  2  0
 16 17  1  0
 17 18  2  0
 18 19  1  0
 19 20  2  0
 19 21  1  0
 18 22  1  0
 22 23  2  0
  4 24  1  0
 24 25  2  0
 25 26  1  0
 26 27  2  0
 26 28  1  0
 28 29  1  0
 29 30  1  0
 30 31  1  0
 31 32  1  0
 25  2  1  0
 32 28  1  0
 14  7  1  0
 23 15  1  0
M  CHG  2  19   1  21  -1
M  END
>  <assay_chembl_id>  (228) 
CHEMBL1013144

>  <assay_description>  (228) 
Antagonist activity at wild type human recombinant androgen receptor assessed as inhibition of testosterone-induced growth of mouse androgen dependent SC3 cells by WST-1 method

>  <parent_molecule_chembl_id>  (228) 
CHEMBL481746

>  <canonical_smiles>  (228) 
Cn1cc(N(Cc2ccc(CO)cc2)c2ccc([N+](=O)[O-])cc2)cc1C(=O)N1CCCC1

>  <standard_type>  (228) 
IC50

>  <standard_relation>  (228) 
=

>  <standard_value>  (228) 
5500.0

>  <standard_units>  (228) 
nM

>  <target_pref_name>  (228) 
Androgen Receptor

>  <target_chembl_id>  (228) 
CHEMBL1871

>  <target_organism>  (228) 
Homo sapiens

>  <pchembl_median>  (228) 
6.6

$$$$
CHEMBL480934
     RDKit          2D

 31 34  0  0  0  0  0  0  0  0999 V2000
   -4.2718   -5.5288    0.0000 C   0  0  0  0  0  0  0  0  0  0  0  0
   -3.0583   -4.6471    0.0000 N   0  0  0  0  0  0  0  0  0  0  0  0
   -1.6317   -5.1106    0.0000 C   0  0  0  0  0  0  0  0  0  0  0  0
   -0.7500   -3.8971    0.0000 C   0  0  0  0  0  0  0  0  0  0  0  0
    0.7500   -3.8971    0.0000 N   0  0  0  0  0  0  0  0  0  0  0  0
    1.5000   -2.5981    0.0000 C   0  0  0  0  0  0  0  0  0  0  0  0
    0.7500   -1.2990    0.0000 C   0  0  0  0  0  0  0  0  0  0  0  0
    1.5000    0.0000    0.0000 C   0  0  0  0  0  0  0  0  0  0  0  0
    0.7500    1.2990    0.0000 C   0  0  0  0  0  0  0  0  0  0  0  0
   -0.7500    1.2990    0.0000 C   0  0  0  0  0  0  0  0  0  0  0  0
   -1.5000    2.5981    0.0000 O   0  0  0  0  0  0  0  0  0  0  0  0
   -1.5000    0.0000    0.0000 C   0  0  0  0  0  0  0  0  0  0  0  0
   -0.7500   -1.2990    0.0000 C   0  0  0  0  0  0  0  0  0  0  0  0
    1.5000   -5.1962    0.0000 C   0  0  0  0  0  0  0  0  0  0  0  0
    0.7500   -6.4952    0.0000 C   0  0  0  0  0  0  0  0  0  0  0  0
    1.5000   -7.7942    0.0000 C   0  0  0  0  0  0  0  0  0  0  0  0
    3.0000   -7.7942    0.0000 C   0  0  0  0  0  0  0  0  0  0  0  0
    3.7500   -9.0933    0.0000 N   0  0  0  0  0  4  0  0  0  0  0  0
    5.2500   -9.0933    0.0000 O   0  0  0  0  0  0  0  0  0  0  0  0
    3.0000  -10.3923    0.0000 O   0  0  0  0  0  1  0  0  0  0  0  0
    3.7500   -6.4952    0.0000 C   0  0  0  0  0  0  0  0  0  0  0  0
    3.0000   -5.1962    0.0000 C   0  0  0  0  0  0  0  0  0  0  0  0
   -1.6317   -2.6836    0.0000 C   0  0  0  0  0  0  0  0  0  0  0  0
   -3.0583   -3.1471    0.0000 C   0  0  0  0  0  0  0  0  0  0  0  0
   -4.2718   -2.2654    0.0000 C   0  0  0  0  0  0  0  0  0  0  0  0
   -5.6421   -2.8755    0.0000 O   0  0  0  0  0  0  0  0  0  0  0  0
   -4.1150   -0.7737    0.0000 N   0  0  0  0  0  0  0  0  0  0  0  0
   -5.2297    0.2300    0.0000 C   0  0  0  0  0  0  0  0  0  0  0  0
   -4.6196    1.6004    0.0000 C   0  0  0  0  0  0  0  0  0  0  0  0
   -3.1278    1.4436    0.0000 C   0  0  0  0  0  0  0  0  0  0  0  0
   -2.8160   -0.0237    0.0000 C   0  0  0  0  0  0  0  0  0  0  0  0
  1  2  1  0
  2  3  1  0
  3  4  2  0
  4  5  1  0
  5  6  1  0
  6  7  1  0
  7  8  2  0
  8  9  1  0
  9 10  2  0
 10 11  1  0
 10 12  1  0
 12 13  2  0
  5 14  1  0
 14 15  2  0
 15 16  1  0
 16 17  2  0
 17 18  1  0
 18 19  2  0
 18 20  1  0
 17 21  1  0
 21 22  2  0
  4 23  1  0
 23 24  2  0
 24 25  1  0
 25 26  2  0
 25 27  1  0
 27 28  1  0
 28 29  1  0
 29 30  1  0
 30 31  1  0
 24  2  1  0
 31 27  1  0
 13  7  1  0
 22 14  1  0
M  CHG  2  18   1  20  -1
M  END
>  <assay_chembl_id>  (229) 
CHEMBL1013144

>  <assay_description>  (229) 
Antagonist activity at wild type human recombinant androgen receptor assessed as inhibition of testosterone-induced growth of mouse androgen dependent SC3 cells by WST-1 method

>  <parent_molecule_chembl_id>  (229) 
CHEMBL480934

>  <canonical_smiles>  (229) 
Cn1cc(N(Cc2ccc(O)cc2)c2ccc([N+](=O)[O-])cc2)cc1C(=O)N1CCCC1

>  <standard_type>  (229) 
IC50

>  <standard_relation>  (229) 
=

>  <standard_value>  (229) 
4800.0

>  <standard_units>  (229) 
nM

>  <target_pref_name>  (229) 
Androgen Receptor

>  <target_chembl_id>  (229) 
CHEMBL1871

>  <target_organism>  (229) 
Homo sapiens

>  <pchembl_median>  (229) 
6.39

$$$$
CHEMBL481939
     RDKit          2D

 31 34  0  0  0  0  0  0  0  0999 V2000
    3.0000    0.0000    0.0000 C   0  0  0  0  0  0  0  0  0  0  0  0
    1.5000    0.0000    0.0000 C   0  0  0  0  0  0  0  0  0  0  0  0
    0.7500   -1.2990    0.0000 C   0  0  0  0  0  0  0  0  0  0  0  0
   -0.7500   -1.2990    0.0000 C   0  0  0  0  0  0  0  0  0  0  0  0
   -1.5000    0.0000    0.0000 C   0  0  0  0  0  0  0  0  0  0  0  0
   -3.0000    0.0000    0.0000 C   0  0  0  0  0  0  0  0  0  0  0  0
   -3.7500    1.2990    0.0000 N   0  0  0  0  0  0  0  0  0  0  0  0
   -5.2500    1.2990    0.0000 C   0  0  0  0  0  0  0  0  0  0  0  0
   -6.0000    2.5981    0.0000 C   0  0  0  0  0  0  0  0  0  0  0  0
   -7.5000    2.5981    0.0000 C   0  0  0  0  0  0  0  0  0  0  0  0
   -8.2500    1.2990    0.0000 C   0  0  0  0  0  0  0  0  0  0  0  0
   -9.7500    1.2990    0.0000 N   0  0  0  0  0  4  0  0  0  0  0  0
  -10.5000    0.0000    0.0000 O   0  0  0  0  0  0  0  0  0  0  0  0
  -10.5000    2.5981    0.0000 O   0  0  0  0  0  1  0  0  0  0  0  0
   -7.5000    0.0000    0.0000 C   0  0  0  0  0  0  0  0  0  0  0  0
   -6.0000    0.0000    0.0000 C   0  0  0  0  0  0  0  0  0  0  0  0
   -3.0000    2.5981    0.0000 C   0  0  0  0  0  0  0  0  0  0  0  0
   -3.6101    3.9684    0.0000 C   0  0  0  0  0  0  0  0  0  0  0  0
   -2.4954    4.9721    0.0000 C   0  0  0  0  0  0  0  0  0  0  0  0
   -2.6522    6.4639    0.0000 C   0  0  0  0  0  0  0  0  0  0  0  0
   -4.0225    7.0740    0.0000 O   0  0  0  0  0  0  0  0  0  0  0  0
   -1.4387    7.3456    0.0000 N   0  0  0  0  0  0  0  0  0  0  0  0
   -1.4387    8.8456    0.0000 C   0  0  0  0  0  0  0  0  0  0  0  0
   -0.0121    9.3091    0.0000 C   0  0  0  0  0  0  0  0  0  0  0  0
    0.8696    8.0956    0.0000 C   0  0  0  0  0  0  0  0  0  0  0  0
   -0.0121    6.8820    0.0000 C   0  0  0  0  0  0  0  0  0  0  0  0
   -1.1963    4.2221    0.0000 N   0  0  0  0  0  0  0  0  0  0  0  0
    0.1740    4.8322    0.0000 C   0  0  0  0  0  0  0  0  0  0  0  0
   -1.5082    2.7549    0.0000 C   0  0  0  0  0  0  0  0  0  0  0  0
   -0.7500    1.2990    0.0000 C   0  0  0  0  0  0  0  0  0  0  0  0
    0.7500    1.2990    0.0000 C   0  0  0  0  0  0  0  0  0  0  0  0
  1  2  1  0
  2  3  2  0
  3  4  1  0
  4  5  2  0
  5  6  1  0
  6  7  1  0
  7  8  1  0
  8  9  2  0
  9 10  1  0
 10 11  2  0
 11 12  1  0
 12 13  2  0
 12 14  1  0
 11 15  1  0
 15 16  2  0
  7 17  1  0
 17 18  1  0
 18 19  2  0
 19 20  1  0
 20 21  2  0
 20 22  1  0
 22 23  1  0
 23 24  1  0
 24 25  1  0
 25 26  1  0
 19 27  1  0
 27 28  1  0
 27 29  1  0
  5 30  1  0
 30 31  2  0
 31  2  1  0
 16  8  1  0
 29 17  2  0
 26 22  1  0
M  CHG  2  12   1  14  -1
M  END
>  <assay_chembl_id>  (230) 
CHEMBL1013144

>  <assay_description>  (230) 
Antagonist activity at wild type human recombinant androgen receptor assessed as inhibition of testosterone-induced growth of mouse androgen dependent SC3 cells by WST-1 method

>  <parent_molecule_chembl_id>  (230) 
CHEMBL481939

>  <canonical_smiles>  (230) 
Cc1ccc(CN(c2ccc([N+](=O)[O-])cc2)c2cc(C(=O)N3CCCC3)n(C)c2)cc1

>  <standard_type>  (230) 
IC50

>  <standard_relation>  (230) 
=

>  <standard_value>  (230) 
4700.0

>  <standard_units>  (230) 
nM

>  <target_pref_name>  (230) 
Androgen Receptor

>  <target_chembl_id>  (230) 
CHEMBL1871

>  <target_organism>  (230) 
Homo sapiens

>  <pchembl_median>  (230) 
5.24

$$$$
CHEMBL481107
     RDKit          2D

 31 34  0  0  0  0  0  0  0  0999 V2000
   -4.2718   -5.5288    0.0000 C   0  0  0  0  0  0  0  0  0  0  0  0
   -3.0583   -4.6471    0.0000 N   0  0  0  0  0  0  0  0  0  0  0  0
   -1.6317   -5.1106    0.0000 C   0  0  0  0  0  0  0  0  0  0  0  0
   -0.7500   -3.8971    0.0000 C   0  0  0  0  0  0  0  0  0  0  0  0
    0.7500   -3.8971    0.0000 N   0  0  0  0  0  0  0  0  0  0  0  0
    1.5000   -2.5981    0.0000 C   0  0  0  0  0  0  0  0  0  0  0  0
    0.7500   -1.2990    0.0000 C   0  0  0  0  0  0  0  0  0  0  0  0
    1.5000    0.0000    0.0000 C   0  0  0  0  0  0  0  0  0  0  0  0
    0.7500    1.2990    0.0000 C   0  0  0  0  0  0  0  0  0  0  0  0
   -0.7500    1.2990    0.0000 C   0  0  0  0  0  0  0  0  0  0  0  0
   -1.5000    2.5981    0.0000 F   0  0  0  0  0  0  0  0  0  0  0  0
   -1.5000    0.0000    0.0000 C   0  0  0  0  0  0  0  0  0  0  0  0
   -0.7500   -1.2990    0.0000 C   0  0  0  0  0  0  0  0  0  0  0  0
    1.5000   -5.1962    0.0000 C   0  0  0  0  0  0  0  0  0  0  0  0
    0.7500   -6.4952    0.0000 C   0  0  0  0  0  0  0  0  0  0  0  0
    1.5000   -7.7942    0.0000 C   0  0  0  0  0  0  0  0  0  0  0  0
    3.0000   -7.7942    0.0000 C   0  0  0  0  0  0  0  0  0  0  0  0
    3.7500   -9.0933    0.0000 N   0  0  0  0  0  4  0  0  0  0  0  0
    5.2500   -9.0933    0.0000 O   0  0  0  0  0  0  0  0  0  0  0  0
    3.0000  -10.3923    0.0000 O   0  0  0  0  0  1  0  0  0  0  0  0
    3.7500   -6.4952    0.0000 C   0  0  0  0  0  0  0  0  0  0  0  0
    3.0000   -5.1962    0.0000 C   0  0  0  0  0  0  0  0  0  0  0  0
   -1.6317   -2.6836    0.0000 C   0  0  0  0  0  0  0  0  0  0  0  0
   -3.0583   -3.1471    0.0000 C   0  0  0  0  0  0  0  0  0  0  0  0
   -4.2718   -2.2654    0.0000 C   0  0  0  0  0  0  0  0  0  0  0  0
   -5.6421   -2.8755    0.0000 O   0  0  0  0  0  0  0  0  0  0  0  0
   -4.1150   -0.7737    0.0000 N   0  0  0  0  0  0  0  0  0  0  0  0
   -5.2297    0.2300    0.0000 C   0  0  0  0  0  0  0  0  0  0  0  0
   -4.6196    1.6004    0.0000 C   0  0  0  0  0  0  0  0  0  0  0  0
   -3.1278    1.4436    0.0000 C   0  0  0  0  0  0  0  0  0  0  0  0
   -2.8160   -0.0237    0.0000 C   0  0  0  0  0  0  0  0  0  0  0  0
  1  2  1  0
  2  3  1  0
  3  4  2  0
  4  5  1  0
  5  6  1  0
  6  7  1  0
  7  8  2  0
  8  9  1  0
  9 10  2  0
 10 11  1  0
 10 12  1  0
 12 13  2  0
  5 14  1  0
 14 15  2  0
 15 16  1  0
 16 17  2  0
 17 18  1  0
 18 19  2  0
 18 20  1  0
 17 21  1  0
 21 22  2  0
  4 23  1  0
 23 24  2  0
 24 25  1  0
 25 26  2  0
 25 27  1  0
 27 28  1  0
 28 29  1  0
 29 30  1  0
 30 31  1  0
 24  2  1  0
 31 27  1  0
 13  7  1  0
 22 14  1  0
M  CHG  2  18   1  20  -1
M  END
>  <assay_chembl_id>  (231) 
CHEMBL1013144

>  <assay_description>  (231) 
Antagonist activity at wild type human recombinant androgen receptor assessed as inhibition of testosterone-induced growth of mouse androgen dependent SC3 cells by WST-1 method

>  <parent_molecule_chembl_id>  (231) 
CHEMBL481107

>  <canonical_smiles>  (231) 
Cn1cc(N(Cc2ccc(F)cc2)c2ccc([N+](=O)[O-])cc2)cc1C(=O)N1CCCC1

>  <standard_type>  (231) 
IC50

>  <standard_relation>  (231) 
=

>  <standard_value>  (231) 
4000.0

>  <standard_units>  (231) 
nM

>  <target_pref_name>  (231) 
Androgen Receptor

>  <target_chembl_id>  (231) 
CHEMBL1871

>  <target_organism>  (231) 
Homo sapiens

>  <pchembl_median>  (231) 
6.35

$$$$
CHEMBL518945
     RDKit          2D

 30 33  0  0  0  0  0  0  0  0999 V2000
   -4.2718   -5.5288    0.0000 C   0  0  0  0  0  0  0  0  0  0  0  0
   -3.0583   -4.6471    0.0000 N   0  0  0  0  0  0  0  0  0  0  0  0
   -1.6317   -5.1106    0.0000 C   0  0  0  0  0  0  0  0  0  0  0  0
   -0.7500   -3.8971    0.0000 C   0  0  0  0  0  0  0  0  0  0  0  0
    0.7500   -3.8971    0.0000 N   0  0  0  0  0  0  0  0  0  0  0  0
    1.5000   -2.5981    0.0000 C   0  0  0  0  0  0  0  0  0  0  0  0
    0.7500   -1.2990    0.0000 C   0  0  0  0  0  0  0  0  0  0  0  0
    1.5000    0.0000    0.0000 C   0  0  0  0  0  0  0  0  0  0  0  0
    0.7500    1.2990    0.0000 C   0  0  0  0  0  0  0  0  0  0  0  0
   -0.7500    1.2990    0.0000 C   0  0  0  0  0  0  0  0  0  0  0  0
   -1.5000    0.0000    0.0000 C   0  0  0  0  0  0  0  0  0  0  0  0
   -0.7500   -1.2990    0.0000 C   0  0  0  0  0  0  0  0  0  0  0  0
    1.5000   -5.1962    0.0000 C   0  0  0  0  0  0  0  0  0  0  0  0
    0.7500   -6.4952    0.0000 C   0  0  0  0  0  0  0  0  0  0  0  0
    1.5000   -7.7942    0.0000 C   0  0  0  0  0  0  0  0  0  0  0  0
    3.0000   -7.7942    0.0000 C   0  0  0  0  0  0  0  0  0  0  0  0
    3.7500   -9.0933    0.0000 N   0  0  0  0  0  4  0  0  0  0  0  0
    5.2500   -9.0933    0.0000 O   0  0  0  0  0  0  0  0  0  0  0  0
    3.0000  -10.3923    0.0000 O   0  0  0  0  0  1  0  0  0  0  0  0
    3.7500   -6.4952    0.0000 C   0  0  0  0  0  0  0  0  0  0  0  0
    3.0000   -5.1962    0.0000 C   0  0  0  0  0  0  0  0  0  0  0  0
   -1.6317   -2.6836    0.0000 C   0  0  0  0  0  0  0  0  0  0  0  0
   -3.0583   -3.1471    0.0000 C   0  0  0  0  0  0  0  0  0  0  0  0
   -4.2718   -2.2654    0.0000 C   0  0  0  0  0  0  0  0  0  0  0  0
   -5.6421   -2.8755    0.0000 O   0  0  0  0  0  0  0  0  0  0  0  0
   -4.1150   -0.7737    0.0000 N   0  0  0  0  0  0  0  0  0  0  0  0
   -5.2297    0.2300    0.0000 C   0  0  0  0  0  0  0  0  0  0  0  0
   -4.6196    1.6004    0.0000 C   0  0  0  0  0  0  0  0  0  0  0  0
   -3.1278    1.4436    0.0000 C   0  0  0  0  0  0  0  0  0  0  0  0
   -2.8160   -0.0237    0.0000 C   0  0  0  0  0  0  0  0  0  0  0  0
  1  2  1  0
  2  3  1  0
  3  4  2  0
  4  5  1  0
  5  6  1  0
  6  7  1  0
  7  8  2  0
  8  9  1  0
  9 10  2  0
 10 11  1  0
 11 12  2  0
  5 13  1  0
 13 14  2  0
 14 15  1  0
 15 16  2  0
 16 17  1  0
 17 18  2  0
 17 19  1  0
 16 20  1  0
 20 21  2  0
  4 22  1  0
 22 23  2  0
 23 24  1  0
 24 25  2  0
 24 26  1  0
 26 27  1  0
 27 28  1  0
 28 29  1  0
 29 30  1  0
 23  2  1  0
 30 26  1  0
 12  7  1  0
 21 13  1  0
M  CHG  2  17   1  19  -1
M  END
>  <assay_chembl_id>  (232) 
CHEMBL1013144

>  <assay_description>  (232) 
Antagonist activity at wild type human recombinant androgen receptor assessed as inhibition of testosterone-induced growth of mouse androgen dependent SC3 cells by WST-1 method

>  <parent_molecule_chembl_id>  (232) 
CHEMBL518945

>  <canonical_smiles>  (232) 
Cn1cc(N(Cc2ccccc2)c2ccc([N+](=O)[O-])cc2)cc1C(=O)N1CCCC1

>  <standard_type>  (232) 
IC50

>  <standard_relation>  (232) 
=

>  <standard_value>  (232) 
440.0

>  <standard_units>  (232) 
nM

>  <target_pref_name>  (232) 
Androgen Receptor

>  <target_chembl_id>  (232) 
CHEMBL1871

>  <target_organism>  (232) 
Homo sapiens

>  <pchembl_median>  (232) 
6.07

$$$$
CHEMBL519780
     RDKit          2D

 30 33  0  0  0  0  0  0  0  0999 V2000
   -4.2718   -5.5288    0.0000 C   0  0  0  0  0  0  0  0  0  0  0  0
   -3.0583   -4.6471    0.0000 N   0  0  0  0  0  0  0  0  0  0  0  0
   -1.6317   -5.1106    0.0000 C   0  0  0  0  0  0  0  0  0  0  0  0
   -0.7500   -3.8971    0.0000 C   0  0  0  0  0  0  0  0  0  0  0  0
    0.7500   -3.8971    0.0000 N   0  0  0  0  0  0  0  0  0  0  0  0
    1.5000   -2.5981    0.0000 C   0  0  0  0  0  0  0  0  0  0  0  0
    0.7500   -1.2990    0.0000 C   0  0  0  0  0  0  0  0  0  0  0  0
    1.5000    0.0000    0.0000 C   0  0  0  0  0  0  0  0  0  0  0  0
    0.7500    1.2990    0.0000 C   0  0  0  0  0  0  0  0  0  0  0  0
   -0.7500    1.2990    0.0000 C   0  0  0  0  0  0  0  0  0  0  0  0
   -1.5000    0.0000    0.0000 C   0  0  0  0  0  0  0  0  0  0  0  0
   -0.7500   -1.2990    0.0000 C   0  0  0  0  0  0  0  0  0  0  0  0
    1.5000   -5.1962    0.0000 C   0  0  0  0  0  0  0  0  0  0  0  0
    0.7500   -6.4952    0.0000 C   0  0  0  0  0  0  0  0  0  0  0  0
    1.5000   -7.7942    0.0000 C   0  0  0  0  0  0  0  0  0  0  0  0
    3.0000   -7.7942    0.0000 C   0  0  0  0  0  0  0  0  0  0  0  0
    3.7500   -9.0933    0.0000 N   0  0  0  0  0  4  0  0  0  0  0  0
    5.2500   -9.0933    0.0000 O   0  0  0  0  0  0  0  0  0  0  0  0
    3.0000  -10.3923    0.0000 O   0  0  0  0  0  1  0  0  0  0  0  0
    3.7500   -6.4952    0.0000 C   0  0  0  0  0  0  0  0  0  0  0  0
    3.0000   -5.1962    0.0000 C   0  0  0  0  0  0  0  0  0  0  0  0
   -1.6317   -2.6836    0.0000 C   0  0  0  0  0  0  0  0  0  0  0  0
   -3.0583   -3.1471    0.0000 C   0  0  0  0  0  0  0  0  0  0  0  0
   -4.2718   -2.2654    0.0000 C   0  0  0  0  0  0  0  0  0  0  0  0
   -5.6421   -2.8755    0.0000 O   0  0  0  0  0  0  0  0  0  0  0  0
   -4.1150   -0.7737    0.0000 N   0  0  0  0  0  0  0  0  0  0  0  0
   -5.2297    0.2300    0.0000 C   0  0  0  0  0  0  0  0  0  0  0  0
   -4.6196    1.6004    0.0000 C   0  0  0  0  0  0  0  0  0  0  0  0
   -3.1278    1.4436    0.0000 C   0  0  0  0  0  0  0  0  0  0  0  0
   -2.8160   -0.0237    0.0000 C   0  0  0  0  0  0  0  0  0  0  0  0
  1  2  1  0
  2  3  1  0
  3  4  2  0
  4  5  1  0
  5  6  1  0
  6  7  1  0
  7  8  1  0
  8  9  1  0
  9 10  1  0
 10 11  1  0
 11 12  1  0
  5 13  1  0
 13 14  2  0
 14 15  1  0
 15 16  2  0
 16 17  1  0
 17 18  2  0
 17 19  1  0
 16 20  1  0
 20 21  2  0
  4 22  1  0
 22 23  2  0
 23 24  1  0
 24 25  2  0
 24 26  1  0
 26 27  1  0
 27 28  1  0
 28 29  1  0
 29 30  1  0
 23  2  1  0
 30 26  1  0
 12  7  1  0
 21 13  1  0
M  CHG  2  17   1  19  -1
M  END
>  <assay_chembl_id>  (233) 
CHEMBL1013144

>  <assay_description>  (233) 
Antagonist activity at wild type human recombinant androgen receptor assessed as inhibition of testosterone-induced growth of mouse androgen dependent SC3 cells by WST-1 method

>  <parent_molecule_chembl_id>  (233) 
CHEMBL519780

>  <canonical_smiles>  (233) 
Cn1cc(N(CC2CCCCC2)c2ccc([N+](=O)[O-])cc2)cc1C(=O)N1CCCC1

>  <standard_type>  (233) 
IC50

>  <standard_relation>  (233) 
=

>  <standard_value>  (233) 
880.0

>  <standard_units>  (233) 
nM

>  <target_pref_name>  (233) 
Androgen Receptor

>  <target_chembl_id>  (233) 
CHEMBL1871

>  <target_organism>  (233) 
Homo sapiens

>  <pchembl_median>  (233) 
6.81

$$$$
CHEMBL481356
     RDKit          2D

 26 28  0  0  0  0  0  0  0  0999 V2000
    1.5000   -5.1962    0.0000 C   0  0  0  0  0  0  0  0  0  0  0  0
    0.7500   -3.8971    0.0000 C   0  0  0  0  0  0  0  0  0  0  0  0
   -0.7500   -3.8971    0.0000 C   0  0  0  0  0  0  0  0  0  0  0  0
    1.5000   -2.5981    0.0000 N   0  0  0  0  0  0  0  0  0  0  0  0
    0.7500   -1.2990    0.0000 C   0  0  0  0  0  0  0  0  0  0  0  0
    1.5000    0.0000    0.0000 C   0  0  0  0  0  0  0  0  0  0  0  0
    0.7500    1.2990    0.0000 C   0  0  0  0  0  0  0  0  0  0  0  0
   -0.7500    1.2990    0.0000 C   0  0  0  0  0  0  0  0  0  0  0  0
   -1.5000    2.5981    0.0000 N   0  0  0  0  0  4  0  0  0  0  0  0
   -3.0000    2.5981    0.0000 O   0  0  0  0  0  0  0  0  0  0  0  0
   -0.7500    3.8971    0.0000 O   0  0  0  0  0  1  0  0  0  0  0  0
   -1.5000    0.0000    0.0000 C   0  0  0  0  0  0  0  0  0  0  0  0
   -0.7500   -1.2990    0.0000 C   0  0  0  0  0  0  0  0  0  0  0  0
    3.0000   -2.5981    0.0000 C   0  0  0  0  0  0  0  0  0  0  0  0
    3.8817   -1.3846    0.0000 C   0  0  0  0  0  0  0  0  0  0  0  0
    5.3083   -1.8481    0.0000 C   0  0  0  0  0  0  0  0  0  0  0  0
    6.5218   -0.9664    0.0000 C   0  0  0  0  0  0  0  0  0  0  0  0
    6.3650    0.5254    0.0000 O   0  0  0  0  0  0  0  0  0  0  0  0
    7.8921   -1.5765    0.0000 N   0  0  0  0  0  0  0  0  0  0  0  0
    9.1911   -0.8265    0.0000 C   0  0  0  0  0  0  0  0  0  0  0  0
   10.3059   -1.8302    0.0000 C   0  0  0  0  0  0  0  0  0  0  0  0
    9.6958   -3.2005    0.0000 C   0  0  0  0  0  0  0  0  0  0  0  0
    8.2040   -3.0437    0.0000 C   0  0  0  0  0  0  0  0  0  0  0  0
    5.3083   -3.3481    0.0000 N   0  0  0  0  0  0  0  0  0  0  0  0
    6.5218   -4.2298    0.0000 C   0  0  0  0  0  0  0  0  0  0  0  0
    3.8817   -3.8116    0.0000 C   0  0  0  0  0  0  0  0  0  0  0  0
  1  2  1  0
  2  3  1  0
  2  4  1  0
  4  5  1  0
  5  6  2  0
  6  7  1  0
  7  8  2  0
  8  9  1  0
  9 10  2  0
  9 11  1  0
  8 12  1  0
 12 13  2  0
  4 14  1  0
 14 15  1  0
 15 16  2  0
 16 17  1  0
 17 18  2  0
 17 19  1  0
 19 20  1  0
 20 21  1  0
 21 22  1  0
 22 23  1  0
 16 24  1  0
 24 25  1  0
 24 26  1  0
 13  5  1  0
 26 14  2  0
 23 19  1  0
M  CHG  2   9   1  11  -1
M  END
>  <assay_chembl_id>  (234) 
CHEMBL1013144

>  <assay_description>  (234) 
Antagonist activity at wild type human recombinant androgen receptor assessed as inhibition of testosterone-induced growth of mouse androgen dependent SC3 cells by WST-1 method

>  <parent_molecule_chembl_id>  (234) 
CHEMBL481356

>  <canonical_smiles>  (234) 
CC(C)N(c1ccc([N+](=O)[O-])cc1)c1cc(C(=O)N2CCCC2)n(C)c1

>  <standard_type>  (234) 
IC50

>  <standard_relation>  (234) 
=

>  <standard_value>  (234) 
14500.0

>  <standard_units>  (234) 
nM

>  <target_pref_name>  (234) 
Androgen Receptor

>  <target_chembl_id>  (234) 
CHEMBL1871

>  <target_organism>  (234) 
Homo sapiens

>  <pchembl_median>  (234) 
8.7

$$$$
CHEMBL481355
     RDKit          2D

 25 27  0  0  0  0  0  0  0  0999 V2000
    1.5000   -5.1962    0.0000 C   0  0  0  0  0  0  0  0  0  0  0  0
    0.7500   -3.8971    0.0000 C   0  0  0  0  0  0  0  0  0  0  0  0
    1.5000   -2.5981    0.0000 N   0  0  0  0  0  0  0  0  0  0  0  0
    0.7500   -1.2990    0.0000 C   0  0  0  0  0  0  0  0  0  0  0  0
    1.5000    0.0000    0.0000 C   0  0  0  0  0  0  0  0  0  0  0  0
    0.7500    1.2990    0.0000 C   0  0  0  0  0  0  0  0  0  0  0  0
   -0.7500    1.2990    0.0000 C   0  0  0  0  0  0  0  0  0  0  0  0
   -1.5000    2.5981    0.0000 N   0  0  0  0  0  4  0  0  0  0  0  0
   -3.0000    2.5981    0.0000 O   0  0  0  0  0  0  0  0  0  0  0  0
   -0.7500    3.8971    0.0000 O   0  0  0  0  0  1  0  0  0  0  0  0
   -1.5000    0.0000    0.0000 C   0  0  0  0  0  0  0  0  0  0  0  0
   -0.7500   -1.2990    0.0000 C   0  0  0  0  0  0  0  0  0  0  0  0
    3.0000   -2.5981    0.0000 C   0  0  0  0  0  0  0  0  0  0  0  0
    3.8817   -1.3846    0.0000 C   0  0  0  0  0  0  0  0  0  0  0  0
    5.3083   -1.8481    0.0000 C   0  0  0  0  0  0  0  0  0  0  0  0
    6.5218   -0.9664    0.0000 C   0  0  0  0  0  0  0  0  0  0  0  0
    6.3650    0.5254    0.0000 O   0  0  0  0  0  0  0  0  0  0  0  0
    7.8921   -1.5765    0.0000 N   0  0  0  0  0  0  0  0  0  0  0  0
    9.1911   -0.8265    0.0000 C   0  0  0  0  0  0  0  0  0  0  0  0
   10.3059   -1.8302    0.0000 C   0  0  0  0  0  0  0  0  0  0  0  0
    9.6958   -3.2005    0.0000 C   0  0  0  0  0  0  0  0  0  0  0  0
    8.2040   -3.0437    0.0000 C   0  0  0  0  0  0  0  0  0  0  0  0
    5.3083   -3.3481    0.0000 N   0  0  0  0  0  0  0  0  0  0  0  0
    6.5218   -4.2298    0.0000 C   0  0  0  0  0  0  0  0  0  0  0  0
    3.8817   -3.8116    0.0000 C   0  0  0  0  0  0  0  0  0  0  0  0
  1  2  1  0
  2  3  1  0
  3  4  1  0
  4  5  2  0
  5  6  1  0
  6  7  2  0
  7  8  1  0
  8  9  2  0
  8 10  1  0
  7 11  1  0
 11 12  2  0
  3 13  1  0
 13 14  1  0
 14 15  2  0
 15 16  1  0
 16 17  2  0
 16 18  1  0
 18 19  1  0
 19 20  1  0
 20 21  1  0
 21 22  1  0
 15 23  1  0
 23 24  1  0
 23 25  1  0
 12  4  1  0
 25 13  2  0
 22 18  1  0
M  CHG  2   8   1  10  -1
M  END
>  <assay_chembl_id>  (235) 
CHEMBL1013144

>  <assay_description>  (235) 
Antagonist activity at wild type human recombinant androgen receptor assessed as inhibition of testosterone-induced growth of mouse androgen dependent SC3 cells by WST-1 method

>  <parent_molecule_chembl_id>  (235) 
CHEMBL481355

>  <canonical_smiles>  (235) 
CCN(c1ccc([N+](=O)[O-])cc1)c1cc(C(=O)N2CCCC2)n(C)c1

>  <standard_type>  (235) 
IC50

>  <standard_relation>  (235) 
=

>  <standard_value>  (235) 
15500.0

>  <standard_units>  (235) 
nM

>  <target_pref_name>  (235) 
Androgen Receptor

>  <target_chembl_id>  (235) 
CHEMBL1871

>  <target_organism>  (235) 
Homo sapiens

>  <pchembl_median>  (235) 
5.81

$$$$
CHEMBL481686
     RDKit          2D

 31 34  0  0  0  0  0  0  0  0999 V2000
    3.0000    0.0000    0.0000 C   0  0  0  0  0  0  0  0  0  0  0  0
    1.5000    0.0000    0.0000 C   0  0  0  0  0  0  0  0  0  0  0  0
    0.7500   -1.2990    0.0000 C   0  0  0  0  0  0  0  0  0  0  0  0
   -0.7500   -1.2990    0.0000 C   0  0  0  0  0  0  0  0  0  0  0  0
   -1.5000   -2.5981    0.0000 C   0  0  0  0  0  0  0  0  0  0  0  0
   -1.5000    0.0000    0.0000 C   0  0  0  0  0  0  0  0  0  0  0  0
   -0.7500    1.2990    0.0000 C   0  0  0  0  0  0  0  0  0  0  0  0
   -1.5000    2.5981    0.0000 N   0  0  0  0  0  0  0  0  0  0  0  0
   -0.7500    3.8971    0.0000 C   0  0  0  0  0  0  0  0  0  0  0  0
   -1.5000    5.1962    0.0000 C   0  0  0  0  0  0  0  0  0  0  0  0
   -0.7500    6.4952    0.0000 C   0  0  0  0  0  0  0  0  0  0  0  0
   -1.5000    7.7942    0.0000 C   0  0  0  0  0  0  0  0  0  0  0  0
   -3.0000    7.7942    0.0000 C   0  0  0  0  0  0  0  0  0  0  0  0
   -3.7500    9.0933    0.0000 C   0  0  0  0  0  0  0  0  0  0  0  0
   -3.0000   10.3923    0.0000 O   0  0  0  0  0  0  0  0  0  0  0  0
   -3.7500    6.4952    0.0000 C   0  0  0  0  0  0  0  0  0  0  0  0
   -3.0000    5.1962    0.0000 C   0  0  0  0  0  0  0  0  0  0  0  0
   -3.0000    2.5981    0.0000 C   0  0  0  0  0  0  0  0  0  0  0  0
   -3.8817    1.3846    0.0000 C   0  0  0  0  0  0  0  0  0  0  0  0
   -5.3083    1.8481    0.0000 C   0  0  0  0  0  0  0  0  0  0  0  0
   -6.5218    0.9664    0.0000 C   0  0  0  0  0  0  0  0  0  0  0  0
   -6.3650   -0.5254    0.0000 O   0  0  0  0  0  0  0  0  0  0  0  0
   -7.8921    1.5765    0.0000 N   0  0  0  0  0  0  0  0  0  0  0  0
   -9.1911    0.8265    0.0000 C   0  0  0  0  0  0  0  0  0  0  0  0
  -10.3059    1.8302    0.0000 C   0  0  0  0  0  0  0  0  0  0  0  0
   -9.6958    3.2005    0.0000 C   0  0  0  0  0  0  0  0  0  0  0  0
   -8.2040    3.0437    0.0000 C   0  0  0  0  0  0  0  0  0  0  0  0
   -5.3083    3.3481    0.0000 N   0  0  0  0  0  0  0  0  0  0  0  0
   -6.5218    4.2298    0.0000 C   0  0  0  0  0  0  0  0  0  0  0  0
   -3.8817    3.8116    0.0000 C   0  0  0  0  0  0  0  0  0  0  0  0
    0.7500    1.2990    0.0000 C   0  0  0  0  0  0  0  0  0  0  0  0
  1  2  1  0
  2  3  2  0
  3  4  1  0
  4  5  1  0
  4  6  2  0
  6  7  1  0
  7  8  1  0
  8  9  1  0
  9 10  1  0
 10 11  2  0
 11 12  1  0
 12 13  2  0
 13 14  1  0
 14 15  1  0
 13 16  1  0
 16 17  2  0
  8 18  1  0
 18 19  1  0
 19 20  2  0
 20 21  1  0
 21 22  2  0
 21 23  1  0
 23 24  1  0
 24 25  1  0
 25 26  1  0
 26 27  1  0
 20 28  1  0
 28 29  1  0
 28 30  1  0
  7 31  2  0
 31  2  1  0
 17 10  1  0
 30 18  2  0
 27 23  1  0
M  END
>  <assay_chembl_id>  (236) 
CHEMBL1013144

>  <assay_description>  (236) 
Antagonist activity at wild type human recombinant androgen receptor assessed as inhibition of testosterone-induced growth of mouse androgen dependent SC3 cells by WST-1 method

>  <parent_molecule_chembl_id>  (236) 
CHEMBL481686

>  <canonical_smiles>  (236) 
Cc1cc(C)cc(N(Cc2ccc(CO)cc2)c2cc(C(=O)N3CCCC3)n(C)c2)c1

>  <standard_type>  (236) 
IC50

>  <standard_relation>  (236) 
=

>  <standard_value>  (236) 
5800.0

>  <standard_units>  (236) 
nM

>  <target_pref_name>  (236) 
Androgen Receptor

>  <target_chembl_id>  (236) 
CHEMBL1871

>  <target_organism>  (236) 
Homo sapiens

>  <pchembl_median>  (236) 
5.09

$$$$
CHEMBL481515
     RDKit          2D

 30 33  0  0  0  0  0  0  0  0999 V2000
    3.0000    0.0000    0.0000 C   0  0  0  0  0  0  0  0  0  0  0  0
    1.5000    0.0000    0.0000 C   0  0  0  0  0  0  0  0  0  0  0  0
    0.7500   -1.2990    0.0000 C   0  0  0  0  0  0  0  0  0  0  0  0
   -0.7500   -1.2990    0.0000 C   0  0  0  0  0  0  0  0  0  0  0  0
   -1.5000   -2.5981    0.0000 C   0  0  0  0  0  0  0  0  0  0  0  0
   -1.5000    0.0000    0.0000 C   0  0  0  0  0  0  0  0  0  0  0  0
   -0.7500    1.2990    0.0000 C   0  0  0  0  0  0  0  0  0  0  0  0
   -1.5000    2.5981    0.0000 N   0  0  0  0  0  0  0  0  0  0  0  0
   -0.7500    3.8971    0.0000 C   0  0  0  0  0  0  0  0  0  0  0  0
   -1.5000    5.1962    0.0000 C   0  0  0  0  0  0  0  0  0  0  0  0
   -0.7500    6.4952    0.0000 C   0  0  0  0  0  0  0  0  0  0  0  0
   -1.5000    7.7942    0.0000 C   0  0  0  0  0  0  0  0  0  0  0  0
   -3.0000    7.7942    0.0000 C   0  0  0  0  0  0  0  0  0  0  0  0
   -3.7500    9.0933    0.0000 O   0  0  0  0  0  0  0  0  0  0  0  0
   -3.7500    6.4952    0.0000 C   0  0  0  0  0  0  0  0  0  0  0  0
   -3.0000    5.1962    0.0000 C   0  0  0  0  0  0  0  0  0  0  0  0
   -3.0000    2.5981    0.0000 C   0  0  0  0  0  0  0  0  0  0  0  0
   -3.8817    1.3846    0.0000 C   0  0  0  0  0  0  0  0  0  0  0  0
   -5.3083    1.8481    0.0000 C   0  0  0  0  0  0  0  0  0  0  0  0
   -6.5218    0.9664    0.0000 C   0  0  0  0  0  0  0  0  0  0  0  0
   -6.3650   -0.5254    0.0000 O   0  0  0  0  0  0  0  0  0  0  0  0
   -7.8921    1.5765    0.0000 N   0  0  0  0  0  0  0  0  0  0  0  0
   -9.1911    0.8265    0.0000 C   0  0  0  0  0  0  0  0  0  0  0  0
  -10.3059    1.8302    0.0000 C   0  0  0  0  0  0  0  0  0  0  0  0
   -9.6958    3.2005    0.0000 C   0  0  0  0  0  0  0  0  0  0  0  0
   -8.2040    3.0437    0.0000 C   0  0  0  0  0  0  0  0  0  0  0  0
   -5.3083    3.3481    0.0000 N   0  0  0  0  0  0  0  0  0  0  0  0
   -6.5218    4.2298    0.0000 C   0  0  0  0  0  0  0  0  0  0  0  0
   -3.8817    3.8116    0.0000 C   0  0  0  0  0  0  0  0  0  0  0  0
    0.7500    1.2990    0.0000 C   0  0  0  0  0  0  0  0  0  0  0  0
  1  2  1  0
  2  3  2  0
  3  4  1  0
  4  5  1  0
  4  6  2  0
  6  7  1  0
  7  8  1  0
  8  9  1  0
  9 10  1  0
 10 11  2  0
 11 12  1  0
 12 13  2  0
 13 14  1  0
 13 15  1  0
 15 16  2  0
  8 17  1  0
 17 18  1  0
 18 19  2  0
 19 20  1  0
 20 21  2  0
 20 22  1  0
 22 23  1  0
 23 24  1  0
 24 25  1  0
 25 26  1  0
 19 27  1  0
 27 28  1  0
 27 29  1  0
  7 30  2  0
 30  2  1  0
 16 10  1  0
 29 17  2  0
 26 22  1  0
M  END
>  <assay_chembl_id>  (237) 
CHEMBL1013144

>  <assay_description>  (237) 
Antagonist activity at wild type human recombinant androgen receptor assessed as inhibition of testosterone-induced growth of mouse androgen dependent SC3 cells by WST-1 method

>  <parent_molecule_chembl_id>  (237) 
CHEMBL481515

>  <canonical_smiles>  (237) 
Cc1cc(C)cc(N(Cc2ccc(O)cc2)c2cc(C(=O)N3CCCC3)n(C)c2)c1

>  <standard_type>  (237) 
IC50

>  <standard_relation>  (237) 
=

>  <standard_value>  (237) 
6600.0

>  <standard_units>  (237) 
nM

>  <target_pref_name>  (237) 
Androgen Receptor

>  <target_chembl_id>  (237) 
CHEMBL1871

>  <target_organism>  (237) 
Homo sapiens

>  <pchembl_median>  (237) 
8.01

$$$$
CHEMBL516752
     RDKit          2D

 25 27  0  0  0  0  0  0  0  0999 V2000
    3.0000    0.0000    0.0000 C   0  0  0  0  0  0  0  0  0  0  0  0
    1.5000    0.0000    0.0000 C   0  0  0  0  0  0  0  0  0  0  0  0
    0.7500   -1.2990    0.0000 C   0  0  0  0  0  0  0  0  0  0  0  0
   -0.7500   -1.2990    0.0000 C   0  0  0  0  0  0  0  0  0  0  0  0
   -1.5000   -2.5981    0.0000 C   0  0  0  0  0  0  0  0  0  0  0  0
   -1.5000    0.0000    0.0000 C   0  0  0  0  0  0  0  0  0  0  0  0
   -0.7500    1.2990    0.0000 C   0  0  0  0  0  0  0  0  0  0  0  0
   -1.5000    2.5981    0.0000 N   0  0  0  0  0  0  0  0  0  0  0  0
   -3.0000    2.5981    0.0000 C   0  0  0  0  0  0  0  0  0  0  0  0
   -3.8817    1.3846    0.0000 C   0  0  0  0  0  0  0  0  0  0  0  0
   -5.3083    1.8481    0.0000 C   0  0  0  0  0  0  0  0  0  0  0  0
   -6.5218    0.9664    0.0000 C   0  0  0  0  0  0  0  0  0  0  0  0
   -6.3650   -0.5254    0.0000 O   0  0  0  0  0  0  0  0  0  0  0  0
   -7.8921    1.5765    0.0000 N   0  0  0  0  0  0  0  0  0  0  0  0
   -9.1911    0.8265    0.0000 C   0  0  0  0  0  0  0  0  0  0  0  0
  -10.3059    1.8302    0.0000 C   0  0  0  0  0  0  0  0  0  0  0  0
   -9.6958    3.2005    0.0000 C   0  0  0  0  0  0  0  0  0  0  0  0
   -8.2040    3.0437    0.0000 C   0  0  0  0  0  0  0  0  0  0  0  0
   -5.3083    3.3481    0.0000 N   0  0  0  0  0  0  0  0  0  0  0  0
   -6.5218    4.2298    0.0000 C   0  0  0  0  0  0  0  0  0  0  0  0
   -3.8817    3.8116    0.0000 C   0  0  0  0  0  0  0  0  0  0  0  0
   -0.7500    3.8971    0.0000 C   0  0  0  0  0  0  0  0  0  0  0  0
   -1.5000    5.1962    0.0000 C   0  0  0  0  0  0  0  0  0  0  0  0
    0.7500    3.8971    0.0000 C   0  0  0  0  0  0  0  0  0  0  0  0
    0.7500    1.2990    0.0000 C   0  0  0  0  0  0  0  0  0  0  0  0
  1  2  1  0
  2  3  2  0
  3  4  1  0
  4  5  1  0
  4  6  2  0
  6  7  1  0
  7  8  1  0
  8  9  1  0
  9 10  1  0
 10 11  2  0
 11 12  1  0
 12 13  2  0
 12 14  1  0
 14 15  1  0
 15 16  1  0
 16 17  1  0
 17 18  1  0
 11 19  1  0
 19 20  1  0
 19 21  1  0
  8 22  1  0
 22 23  1  0
 22 24  1  0
  7 25  2  0
 25  2  1  0
 21  9  2  0
 18 14  1  0
M  END
>  <assay_chembl_id>  (238) 
CHEMBL1013144

>  <assay_description>  (238) 
Antagonist activity at wild type human recombinant androgen receptor assessed as inhibition of testosterone-induced growth of mouse androgen dependent SC3 cells by WST-1 method

>  <parent_molecule_chembl_id>  (238) 
CHEMBL516752

>  <canonical_smiles>  (238) 
Cc1cc(C)cc(N(c2cc(C(=O)N3CCCC3)n(C)c2)C(C)C)c1

>  <standard_type>  (238) 
IC50

>  <standard_relation>  (238) 
=

>  <standard_value>  (238) 
10000.0

>  <standard_units>  (238) 
nM

>  <target_pref_name>  (238) 
Androgen Receptor

>  <target_chembl_id>  (238) 
CHEMBL1871

>  <target_organism>  (238) 
Homo sapiens

>  <pchembl_median>  (238) 
7.565

$$$$
CHEMBL481152
     RDKit          2D

 24 26  0  0  0  0  0  0  0  0999 V2000
    1.5000   -5.1962    0.0000 C   0  0  0  0  0  0  0  0  0  0  0  0
    0.7500   -3.8971    0.0000 C   0  0  0  0  0  0  0  0  0  0  0  0
    1.5000   -2.5981    0.0000 N   0  0  0  0  0  0  0  0  0  0  0  0
    0.7500   -1.2990    0.0000 C   0  0  0  0  0  0  0  0  0  0  0  0
    1.5000    0.0000    0.0000 C   0  0  0  0  0  0  0  0  0  0  0  0
    0.7500    1.2990    0.0000 C   0  0  0  0  0  0  0  0  0  0  0  0
    1.5000    2.5981    0.0000 C   0  0  0  0  0  0  0  0  0  0  0  0
   -0.7500    1.2990    0.0000 C   0  0  0  0  0  0  0  0  0  0  0  0
   -1.5000    0.0000    0.0000 C   0  0  0  0  0  0  0  0  0  0  0  0
   -3.0000    0.0000    0.0000 C   0  0  0  0  0  0  0  0  0  0  0  0
   -0.7500   -1.2990    0.0000 C   0  0  0  0  0  0  0  0  0  0  0  0
    3.0000   -2.5981    0.0000 C   0  0  0  0  0  0  0  0  0  0  0  0
    3.8817   -1.3846    0.0000 C   0  0  0  0  0  0  0  0  0  0  0  0
    5.3083   -1.8481    0.0000 C   0  0  0  0  0  0  0  0  0  0  0  0
    6.5218   -0.9664    0.0000 C   0  0  0  0  0  0  0  0  0  0  0  0
    6.3650    0.5254    0.0000 O   0  0  0  0  0  0  0  0  0  0  0  0
    7.8921   -1.5765    0.0000 N   0  0  0  0  0  0  0  0  0  0  0  0
    9.1911   -0.8265    0.0000 C   0  0  0  0  0  0  0  0  0  0  0  0
   10.3059   -1.8302    0.0000 C   0  0  0  0  0  0  0  0  0  0  0  0
    9.6958   -3.2005    0.0000 C   0  0  0  0  0  0  0  0  0  0  0  0
    8.2040   -3.0437    0.0000 C   0  0  0  0  0  0  0  0  0  0  0  0
    5.3083   -3.3481    0.0000 N   0  0  0  0  0  0  0  0  0  0  0  0
    6.5218   -4.2298    0.0000 C   0  0  0  0  0  0  0  0  0  0  0  0
    3.8817   -3.8116    0.0000 C   0  0  0  0  0  0  0  0  0  0  0  0
  1  2  1  0
  2  3  1  0
  3  4  1  0
  4  5  2  0
  5  6  1  0
  6  7  1  0
  6  8  2  0
  8  9  1  0
  9 10  1  0
  9 11  2  0
  3 12  1  0
 12 13  1  0
 13 14  2  0
 14 15  1  0
 15 16  2  0
 15 17  1  0
 17 18  1  0
 18 19  1  0
 19 20  1  0
 20 21  1  0
 14 22  1  0
 22 23  1  0
 22 24  1  0
 11  4  1  0
 24 12  2  0
 21 17  1  0
M  END
>  <assay_chembl_id>  (239) 
CHEMBL1013144

>  <assay_description>  (239) 
Antagonist activity at wild type human recombinant androgen receptor assessed as inhibition of testosterone-induced growth of mouse androgen dependent SC3 cells by WST-1 method

>  <parent_molecule_chembl_id>  (239) 
CHEMBL481152

>  <canonical_smiles>  (239) 
CCN(c1cc(C)cc(C)c1)c1cc(C(=O)N2CCCC2)n(C)c1

>  <standard_type>  (239) 
IC50

>  <standard_relation>  (239) 
=

>  <standard_value>  (239) 
22500.0

>  <standard_units>  (239) 
nM

>  <target_pref_name>  (239) 
Androgen Receptor

>  <target_chembl_id>  (239) 
CHEMBL1871

>  <target_organism>  (239) 
Homo sapiens

>  <pchembl_median>  (239) 
5.91

$$$$
CHEMBL480183
     RDKit          2D

 23 25  0  0  0  0  0  0  0  0999 V2000
    3.0000    0.0000    0.0000 C   0  0  0  0  0  0  0  0  0  0  0  0
    1.5000    0.0000    0.0000 C   0  0  0  0  0  0  0  0  0  0  0  0
    0.7500   -1.2990    0.0000 C   0  0  0  0  0  0  0  0  0  0  0  0
   -0.7500   -1.2990    0.0000 C   0  0  0  0  0  0  0  0  0  0  0  0
   -1.5000   -2.5981    0.0000 C   0  0  0  0  0  0  0  0  0  0  0  0
   -1.5000    0.0000    0.0000 C   0  0  0  0  0  0  0  0  0  0  0  0
   -0.7500    1.2990    0.0000 C   0  0  0  0  0  0  0  0  0  0  0  0
   -1.5000    2.5981    0.0000 N   0  0  0  0  0  0  0  0  0  0  0  0
   -0.7500    3.8971    0.0000 C   0  0  0  0  0  0  0  0  0  0  0  0
   -3.0000    2.5981    0.0000 C   0  0  0  0  0  0  0  0  0  0  0  0
   -3.8817    1.3846    0.0000 C   0  0  0  0  0  0  0  0  0  0  0  0
   -5.3083    1.8481    0.0000 C   0  0  0  0  0  0  0  0  0  0  0  0
   -6.5218    0.9664    0.0000 C   0  0  0  0  0  0  0  0  0  0  0  0
   -6.3650   -0.5254    0.0000 O   0  0  0  0  0  0  0  0  0  0  0  0
   -7.8921    1.5765    0.0000 N   0  0  0  0  0  0  0  0  0  0  0  0
   -9.1911    0.8265    0.0000 C   0  0  0  0  0  0  0  0  0  0  0  0
  -10.3059    1.8302    0.0000 C   0  0  0  0  0  0  0  0  0  0  0  0
   -9.6958    3.2005    0.0000 C   0  0  0  0  0  0  0  0  0  0  0  0
   -8.2040    3.0437    0.0000 C   0  0  0  0  0  0  0  0  0  0  0  0
   -5.3083    3.3481    0.0000 N   0  0  0  0  0  0  0  0  0  0  0  0
   -6.5218    4.2298    0.0000 C   0  0  0  0  0  0  0  0  0  0  0  0
   -3.8817    3.8116    0.0000 C   0  0  0  0  0  0  0  0  0  0  0  0
    0.7500    1.2990    0.0000 C   0  0  0  0  0  0  0  0  0  0  0  0
  1  2  1  0
  2  3  2  0
  3  4  1  0
  4  5  1  0
  4  6  2  0
  6  7  1  0
  7  8  1  0
  8  9  1  0
  8 10  1  0
 10 11  1  0
 11 12  2  0
 12 13  1  0
 13 14  2  0
 13 15  1  0
 15 16  1  0
 16 17  1  0
 17 18  1  0
 18 19  1  0
 12 20  1  0
 20 21  1  0
 20 22  1  0
  7 23  2  0
 23  2  1  0
 22 10  2  0
 19 15  1  0
M  END
>  <assay_chembl_id>  (240) 
CHEMBL1013144

>  <assay_description>  (240) 
Antagonist activity at wild type human recombinant androgen receptor assessed as inhibition of testosterone-induced growth of mouse androgen dependent SC3 cells by WST-1 method

>  <parent_molecule_chembl_id>  (240) 
CHEMBL480183

>  <canonical_smiles>  (240) 
Cc1cc(C)cc(N(C)c2cc(C(=O)N3CCCC3)n(C)c2)c1

>  <standard_type>  (240) 
IC50

>  <standard_relation>  (240) 
=

>  <standard_value>  (240) 
26000.0

>  <standard_units>  (240) 
nM

>  <target_pref_name>  (240) 
Androgen Receptor

>  <target_chembl_id>  (240) 
CHEMBL1871

>  <target_organism>  (240) 
Homo sapiens

>  <pchembl_median>  (240) 
6.48

$$$$
CHEMBL516610
     RDKit          2D

 23 25  0  0  0  0  0  0  0  0999 V2000
    0.4022   -7.7629    0.0000 C   0  0  0  0  0  0  0  0  0  0  0  0
    0.2454   -6.2711    0.0000 N   0  0  0  0  0  0  0  0  0  0  0  0
    1.3601   -5.2674    0.0000 C   0  0  0  0  0  0  0  0  0  0  0  0
    0.7500   -3.8971    0.0000 C   0  0  0  0  0  0  0  0  0  0  0  0
    1.5000   -2.5981    0.0000 N   0  0  0  0  0  0  0  0  0  0  0  0
    0.7500   -1.2990    0.0000 C   0  0  0  0  0  0  0  0  0  0  0  0
    1.5000    0.0000    0.0000 C   0  0  0  0  0  0  0  0  0  0  0  0
    0.7500    1.2990    0.0000 C   0  0  0  0  0  0  0  0  0  0  0  0
   -0.7500    1.2990    0.0000 C   0  0  0  0  0  0  0  0  0  0  0  0
   -1.5000    2.5981    0.0000 N   0  0  0  0  0  4  0  0  0  0  0  0
   -3.0000    2.5981    0.0000 O   0  0  0  0  0  0  0  0  0  0  0  0
   -0.7500    3.8971    0.0000 O   0  0  0  0  0  1  0  0  0  0  0  0
   -1.5000    0.0000    0.0000 C   0  0  0  0  0  0  0  0  0  0  0  0
   -0.7500   -1.2990    0.0000 C   0  0  0  0  0  0  0  0  0  0  0  0
   -0.7418   -4.0539    0.0000 C   0  0  0  0  0  0  0  0  0  0  0  0
   -1.0537   -5.5211    0.0000 C   0  0  0  0  0  0  0  0  0  0  0  0
   -2.4240   -6.1312    0.0000 C   0  0  0  0  0  0  0  0  0  0  0  0
   -2.5808   -7.6230    0.0000 O   0  0  0  0  0  0  0  0  0  0  0  0
   -3.6375   -5.2496    0.0000 N   0  0  0  0  0  0  0  0  0  0  0  0
   -5.0641   -5.7131    0.0000 C   0  0  0  0  0  0  0  0  0  0  0  0
   -5.9458   -4.4996    0.0000 C   0  0  0  0  0  0  0  0  0  0  0  0
   -5.0641   -3.2860    0.0000 C   0  0  0  0  0  0  0  0  0  0  0  0
   -3.6375   -3.7496    0.0000 C   0  0  0  0  0  0  0  0  0  0  0  0
  1  2  1  0
  2  3  1  0
  3  4  2  0
  4  5  1  0
  5  6  1  0
  6  7  2  0
  7  8  1  0
  8  9  2  0
  9 10  1  0
 10 11  2  0
 10 12  1  0
  9 13  1  0
 13 14  2  0
  4 15  1  0
 15 16  2  0
 16 17  1  0
 17 18  2  0
 17 19  1  0
 19 20  1  0
 20 21  1  0
 21 22  1  0
 22 23  1  0
 16  2  1  0
 23 19  1  0
 14  6  1  0
M  CHG  2  10   1  12  -1
M  END
>  <assay_chembl_id>  (241) 
CHEMBL1013144

>  <assay_description>  (241) 
Antagonist activity at wild type human recombinant androgen receptor assessed as inhibition of testosterone-induced growth of mouse androgen dependent SC3 cells by WST-1 method

>  <parent_molecule_chembl_id>  (241) 
CHEMBL516610

>  <canonical_smiles>  (241) 
Cn1cc(Nc2ccc([N+](=O)[O-])cc2)cc1C(=O)N1CCCC1

>  <standard_type>  (241) 
IC50

>  <standard_relation>  (241) 
=

>  <standard_value>  (241) 
14700.0

>  <standard_units>  (241) 
nM

>  <target_pref_name>  (241) 
Androgen Receptor

>  <target_chembl_id>  (241) 
CHEMBL1871

>  <target_organism>  (241) 
Homo sapiens

>  <pchembl_median>  (241) 
6.11

$$$$
CHEMBL444991
     RDKit          2D

 22 24  0  0  0  0  0  0  0  0999 V2000
    3.0000    0.0000    0.0000 C   0  0  0  0  0  0  0  0  0  0  0  0
    1.5000    0.0000    0.0000 C   0  0  0  0  0  0  0  0  0  0  0  0
    0.7500   -1.2990    0.0000 C   0  0  0  0  0  0  0  0  0  0  0  0
   -0.7500   -1.2990    0.0000 C   0  0  0  0  0  0  0  0  0  0  0  0
   -1.5000   -2.5981    0.0000 C   0  0  0  0  0  0  0  0  0  0  0  0
   -1.5000    0.0000    0.0000 C   0  0  0  0  0  0  0  0  0  0  0  0
   -0.7500    1.2990    0.0000 C   0  0  0  0  0  0  0  0  0  0  0  0
   -1.5000    2.5981    0.0000 N   0  0  0  0  0  0  0  0  0  0  0  0
   -0.7500    3.8971    0.0000 C   0  0  0  0  0  0  0  0  0  0  0  0
   -1.3601    5.2674    0.0000 C   0  0  0  0  0  0  0  0  0  0  0  0
   -0.2454    6.2711    0.0000 C   0  0  0  0  0  0  0  0  0  0  0  0
   -0.4022    7.7629    0.0000 C   0  0  0  0  0  0  0  0  0  0  0  0
   -1.7725    8.3730    0.0000 O   0  0  0  0  0  0  0  0  0  0  0  0
    0.8113    8.6446    0.0000 N   0  0  0  0  0  0  0  0  0  0  0  0
    0.8113   10.1446    0.0000 C   0  0  0  0  0  0  0  0  0  0  0  0
    2.2379   10.6081    0.0000 C   0  0  0  0  0  0  0  0  0  0  0  0
    3.1196    9.3946    0.0000 C   0  0  0  0  0  0  0  0  0  0  0  0
    2.2379    8.1811    0.0000 C   0  0  0  0  0  0  0  0  0  0  0  0
    1.0537    5.5211    0.0000 N   0  0  0  0  0  0  0  0  0  0  0  0
    2.4240    6.1312    0.0000 C   0  0  0  0  0  0  0  0  0  0  0  0
    0.7418    4.0539    0.0000 C   0  0  0  0  0  0  0  0  0  0  0  0
    0.7500    1.2990    0.0000 C   0  0  0  0  0  0  0  0  0  0  0  0
  1  2  1  0
  2  3  2  0
  3  4  1  0
  4  5  1  0
  4  6  2  0
  6  7  1  0
  7  8  1  0
  8  9  1  0
  9 10  1  0
 10 11  2  0
 11 12  1  0
 12 13  2  0
 12 14  1  0
 14 15  1  0
 15 16  1  0
 16 17  1  0
 17 18  1  0
 11 19  1  0
 19 20  1  0
 19 21  1  0
  7 22  2  0
 22  2  1  0
 21  9  2  0
 18 14  1  0
M  END
>  <assay_chembl_id>  (242) 
CHEMBL1013144

>  <assay_description>  (242) 
Antagonist activity at wild type human recombinant androgen receptor assessed as inhibition of testosterone-induced growth of mouse androgen dependent SC3 cells by WST-1 method

>  <parent_molecule_chembl_id>  (242) 
CHEMBL444991

>  <canonical_smiles>  (242) 
Cc1cc(C)cc(Nc2cc(C(=O)N3CCCC3)n(C)c2)c1

>  <standard_type>  (242) 
IC50

>  <standard_relation>  (242) 
=

>  <standard_value>  (242) 
15000.0

>  <standard_units>  (242) 
nM

>  <target_pref_name>  (242) 
Androgen Receptor

>  <target_chembl_id>  (242) 
CHEMBL1871

>  <target_organism>  (242) 
Homo sapiens

>  <pchembl_median>  (242) 
6.44

$$$$
CHEMBL480182
     RDKit          2D

 25 28  0  0  0  0  0  0  0  0999 V2000
    1.8478   -6.4639    0.0000 O   0  0  0  0  0  0  0  0  0  0  0  0
    2.0046   -4.9721    0.0000 C   0  0  0  0  0  0  0  0  0  0  0  0
    3.3037   -4.2221    0.0000 O   0  0  0  0  0  0  0  0  0  0  0  0
    2.9918   -2.7549    0.0000 N   0  0  0  0  0  0  0  0  0  0  0  0
    1.5000   -2.5981    0.0000 C   0  0  0  0  0  0  0  0  0  0  0  0
    0.7500   -1.2990    0.0000 C   0  0  0  0  0  0  0  0  0  0  0  0
    1.5000    0.0000    0.0000 C   0  0  0  0  0  0  0  0  0  0  0  0
    0.7500    1.2990    0.0000 C   0  0  0  0  0  0  0  0  0  0  0  0
   -0.7500    1.2990    0.0000 C   0  0  0  0  0  0  0  0  0  0  0  0
   -1.5000    2.5981    0.0000 Cl  0  0  0  0  0  0  0  0  0  0  0  0
   -1.5000    0.0000    0.0000 C   0  0  0  0  0  0  0  0  0  0  0  0
   -0.7500   -1.2990    0.0000 C   0  0  0  0  0  0  0  0  0  0  0  0
    0.8899   -3.9684    0.0000 C   0  0  0  0  0  0  0  0  0  0  0  0
   -0.5773   -4.2803    0.0000 C   0  0  0  0  0  0  0  0  0  0  0  0
   -1.0409   -5.7068    0.0000 C   0  0  0  0  0  0  0  0  0  0  0  0
   -2.5081   -6.0187    0.0000 C   0  0  0  0  0  0  0  0  0  0  0  0
   -2.9716   -7.4453    0.0000 C   0  0  0  0  0  0  0  0  0  0  0  0
   -1.9679   -8.5600    0.0000 C   0  0  0  0  0  0  0  0  0  0  0  0
   -2.4314   -9.9866    0.0000 N   0  0  0  0  0  0  0  0  0  0  0  0
   -1.5498  -11.2001    0.0000 C   0  0  0  0  0  0  0  0  0  0  0  0
   -2.4314  -12.4137    0.0000 C   0  0  0  0  0  0  0  0  0  0  0  0
   -3.8580  -11.9501    0.0000 C   0  0  0  0  0  0  0  0  0  0  0  0
   -3.8580  -10.4501    0.0000 C   0  0  0  0  0  0  0  0  0  0  0  0
   -0.5007   -8.2481    0.0000 C   0  0  0  0  0  0  0  0  0  0  0  0
   -0.0372   -6.8216    0.0000 C   0  0  0  0  0  0  0  0  0  0  0  0
  1  2  2  0
  2  3  1  0
  3  4  1  0
  4  5  2  0
  5  6  1  0
  6  7  2  0
  7  8  1  0
  8  9  2  0
  9 10  1  0
  9 11  1  0
 11 12  2  0
  5 13  1  0
 13 14  2  0
 14 15  1  0
 15 16  2  0
 16 17  1  0
 17 18  2  0
 18 19  1  0
 19 20  1  0
 20 21  1  0
 21 22  1  0
 22 23  1  0
 18 24  1  0
 24 25  2  0
 13  2  1  0
 25 15  1  0
 12  6  1  0
 23 19  1  0
M  END
>  <assay_chembl_id>  (243) 
CHEMBL1013144

>  <assay_description>  (243) 
Antagonist activity at wild type human recombinant androgen receptor assessed as inhibition of testosterone-induced growth of mouse androgen dependent SC3 cells by WST-1 method

>  <parent_molecule_chembl_id>  (243) 
CHEMBL480182

>  <canonical_smiles>  (243) 
O=C1ON=C(c2ccc(Cl)cc2)/C1=C/c1ccc(N2CCCC2)cc1

>  <standard_type>  (243) 
IC50

>  <standard_relation>  (243) 
=

>  <standard_value>  (243) 
400.0

>  <standard_units>  (243) 
nM

>  <target_pref_name>  (243) 
Androgen Receptor

>  <target_chembl_id>  (243) 
CHEMBL1871

>  <target_organism>  (243) 
Homo sapiens

>  <pchembl_median>  (243) 
6.6

$$$$
CHEMBL480982
     RDKit          2D

 19 20  0  0  0  0  0  0  0  0999 V2000
    5.2500   -1.2990    0.0000 C   0  0  0  0  0  0  0  0  0  0  0  0
    3.7500   -1.2990    0.0000 C   0  0  0  0  0  0  0  0  0  0  0  0
    3.0000    0.0000    0.0000 N   0  0  0  0  0  0  0  0  0  0  0  0
    3.7500    1.2990    0.0000 C   0  0  0  0  0  0  0  0  0  0  0  0
    5.2500    1.2990    0.0000 C   0  0  0  0  0  0  0  0  0  0  0  0
    1.5000    0.0000    0.0000 C   0  0  0  0  0  0  0  0  0  0  0  0
    0.7500   -1.2990    0.0000 C   0  0  0  0  0  0  0  0  0  0  0  0
   -0.7500   -1.2990    0.0000 C   0  0  0  0  0  0  0  0  0  0  0  0
   -1.5000    0.0000    0.0000 C   0  0  0  0  0  0  0  0  0  0  0  0
   -3.0000    0.0000    0.0000 C   0  0  0  0  0  0  0  0  0  0  0  0
   -3.7500    1.2990    0.0000 C   0  0  0  0  0  0  0  0  0  0  0  0
   -3.1399    2.6694    0.0000 C   0  0  0  0  0  0  0  0  0  0  0  0
   -1.6727    2.9812    0.0000 O   0  0  0  0  0  0  0  0  0  0  0  0
   -4.2546    3.6731    0.0000 O   0  0  0  0  0  0  0  0  0  0  0  0
   -5.5537    2.9231    0.0000 N   0  0  0  0  0  0  0  0  0  0  0  0
   -5.2418    1.4558    0.0000 C   0  0  0  0  0  0  0  0  0  0  0  0
   -6.2455    0.3411    0.0000 C   0  0  0  0  0  0  0  0  0  0  0  0
   -0.7500    1.2990    0.0000 C   0  0  0  0  0  0  0  0  0  0  0  0
    0.7500    1.2990    0.0000 C   0  0  0  0  0  0  0  0  0  0  0  0
  1  2  1  0
  2  3  1  0
  3  4  1  0
  4  5  1  0
  3  6  1  0
  6  7  2  0
  7  8  1  0
  8  9  2  0
  9 10  1  0
 10 11  2  0
 11 12  1  0
 12 13  2  0
 12 14  1  0
 14 15  1  0
 15 16  2  0
 16 17  1  0
  9 18  1  0
 18 19  2  0
 19  6  1  0
 16 11  1  0
M  END
>  <assay_chembl_id>  (244) 
CHEMBL1013144

>  <assay_description>  (244) 
Antagonist activity at wild type human recombinant androgen receptor assessed as inhibition of testosterone-induced growth of mouse androgen dependent SC3 cells by WST-1 method

>  <parent_molecule_chembl_id>  (244) 
CHEMBL480982

>  <canonical_smiles>  (244) 
CCN(CC)c1ccc(/C=C2\C(=O)ON=C2C)cc1

>  <standard_type>  (244) 
IC50

>  <standard_relation>  (244) 
=

>  <standard_value>  (244) 
600.0

>  <standard_units>  (244) 
nM

>  <target_pref_name>  (244) 
Androgen Receptor

>  <target_chembl_id>  (244) 
CHEMBL1871

>  <target_organism>  (244) 
Homo sapiens

>  <pchembl_median>  (244) 
6.07

$$$$
CHEMBL399887
     RDKit          2D

 21 22  0  0  0  0  0  0  0  0999 V2000
    4.5000    0.0000    0.0000 N   0  0  0  0  0  0  0  0  0  0  0  0
    3.0000    0.0000    0.0000 C   0  0  0  0  0  0  0  0  0  0  0  0
    1.5000    0.0000    0.0000 C   0  0  0  0  0  0  0  0  0  0  0  0
    0.7500   -1.2990    0.0000 C   0  0  0  0  0  0  0  0  0  0  0  0
   -0.7500   -1.2990    0.0000 C   0  0  0  0  0  0  0  0  0  0  0  0
   -1.5000    0.0000    0.0000 C   0  0  0  0  0  0  0  0  0  0  0  0
   -3.0000    0.0000    0.0000 O   0  0  0  0  0  0  0  0  0  0  0  0
   -3.7500    1.2990    0.0000 C   0  0  0  0  0  0  0  0  0  0  0  0
   -3.0000    2.5981    0.0000 C   0  0  0  0  0  0  0  0  0  0  0  0
   -3.7500    3.8971    0.0000 C   0  0  0  0  0  0  0  0  0  0  0  0
   -5.2500    3.8971    0.0000 C   0  0  0  0  0  0  0  0  0  0  0  0
   -6.0000    2.5981    0.0000 C   0  0  0  0  0  0  0  0  0  0  0  0
   -5.2500    1.2990    0.0000 C   0  0  0  0  0  0  0  0  0  0  0  0
   -6.0000    0.0000    0.0000 C   0  0  0  0  0  0  0  0  0  0  0  0
   -6.7500   -1.2990    0.0000 N   0  0  0  0  0  0  0  0  0  0  0  0
   -0.7500    1.2990    0.0000 C   0  0  0  0  0  0  0  0  0  0  0  0
    0.7500    1.2990    0.0000 C   0  0  0  0  0  0  0  0  0  0  0  0
    1.5000    2.5981    0.0000 C   0  0  0  0  0  0  0  0  0  0  0  0
    2.2500    3.8971    0.0000 F   0  0  0  0  0  0  0  0  0  0  0  0
    0.2010    3.3481    0.0000 F   0  0  0  0  0  0  0  0  0  0  0  0
    2.7990    1.8481    0.0000 F   0  0  0  0  0  0  0  0  0  0  0  0
  1  2  3  0
  2  3  1  0
  3  4  2  0
  4  5  1  0
  5  6  2  0
  6  7  1  0
  8  7  1  1
  8  9  1  0
  9 10  1  0
 10 11  1  0
 11 12  1  0
 12 13  1  0
 13 14  1  6
 14 15  3  0
  6 16  1  0
 16 17  2  0
 17 18  1  0
 18 19  1  0
 18 20  1  0
 18 21  1  0
 17  3  1  0
 13  8  1  0
M  END
>  <assay_chembl_id>  (245) 
CHEMBL1032459

>  <assay_description>  (245) 
Displacement of [3H]dihydrotestosterone from human androgen receptor expressed in Sf9 cells

>  <parent_molecule_chembl_id>  (245) 
CHEMBL399887

>  <canonical_smiles>  (245) 
N#Cc1ccc(O[C@@H]2CCCC[C@H]2C#N)cc1C(F)(F)F

>  <standard_type>  (245) 
IC50

>  <standard_relation>  (245) 
=

>  <standard_value>  (245) 
60.0

>  <standard_units>  (245) 
nM

>  <target_pref_name>  (245) 
Androgen Receptor

>  <target_chembl_id>  (245) 
CHEMBL1871

>  <target_organism>  (245) 
Homo sapiens

>  <pchembl_median>  (245) 
5.7

$$$$
CHEMBL458084
     RDKit          2D

 19 20  0  0  0  0  0  0  0  0999 V2000
    4.5000    0.0000    0.0000 N   0  0  0  0  0  0  0  0  0  0  0  0
    3.0000    0.0000    0.0000 C   0  0  0  0  0  0  0  0  0  0  0  0
    1.5000    0.0000    0.0000 C   0  0  0  0  0  0  0  0  0  0  0  0
    0.7500   -1.2990    0.0000 C   0  0  0  0  0  0  0  0  0  0  0  0
   -0.7500   -1.2990    0.0000 C   0  0  0  0  0  0  0  0  0  0  0  0
   -1.5000    0.0000    0.0000 C   0  0  0  0  0  0  0  0  0  0  0  0
   -3.0000    0.0000    0.0000 C   0  0  0  0  0  0  0  0  0  0  0  0
   -3.7500    1.2990    0.0000 C   0  0  0  0  0  0  0  0  0  0  0  0
   -5.2500    1.2990    0.0000 C   0  0  0  0  0  0  0  0  0  0  0  0
   -6.0000    0.0000    0.0000 C   0  0  0  0  0  0  0  0  0  0  0  0
   -5.2500   -1.2990    0.0000 C   0  0  0  0  0  0  0  0  0  0  0  0
   -3.7500   -1.2990    0.0000 C   0  0  0  0  0  0  0  0  0  0  0  0
   -3.0000   -2.5981    0.0000 O   0  0  0  0  0  0  0  0  0  0  0  0
   -0.7500    1.2990    0.0000 C   0  0  0  0  0  0  0  0  0  0  0  0
    0.7500    1.2990    0.0000 C   0  0  0  0  0  0  0  0  0  0  0  0
    1.5000    2.5981    0.0000 C   0  0  0  0  0  0  0  0  0  0  0  0
    2.2500    3.8971    0.0000 F   0  0  0  0  0  0  0  0  0  0  0  0
    0.2010    3.3481    0.0000 F   0  0  0  0  0  0  0  0  0  0  0  0
    2.7990    1.8481    0.0000 F   0  0  0  0  0  0  0  0  0  0  0  0
  1  2  3  0
  2  3  1  0
  3  4  2  0
  4  5  1  0
  5  6  2  0
  7  6  1  6
  7  8  1  0
  8  9  1  0
  9 10  1  0
 10 11  1  0
 11 12  1  0
 12 13  1  6
  6 14  1  0
 14 15  2  0
 15 16  1  0
 16 17  1  0
 16 18  1  0
 16 19  1  0
 15  3  1  0
 12  7  1  0
M  END
>  <assay_chembl_id>  (246) 
CHEMBL1032459

>  <assay_description>  (246) 
Displacement of [3H]dihydrotestosterone from human androgen receptor expressed in Sf9 cells

>  <parent_molecule_chembl_id>  (246) 
CHEMBL458084

>  <canonical_smiles>  (246) 
N#Cc1ccc([C@H]2CCCC[C@H]2O)cc1C(F)(F)F

>  <standard_type>  (246) 
IC50

>  <standard_relation>  (246) 
=

>  <standard_value>  (246) 
37.0

>  <standard_units>  (246) 
nM

>  <target_pref_name>  (246) 
Androgen Receptor

>  <target_chembl_id>  (246) 
CHEMBL1871

>  <target_organism>  (246) 
Homo sapiens

>  <pchembl_median>  (246) 
5.97

$$$$
CHEMBL458506
     RDKit          2D

 19 20  0  0  0  0  0  0  0  0999 V2000
    4.5000    0.0000    0.0000 N   0  0  0  0  0  0  0  0  0  0  0  0
    3.0000    0.0000    0.0000 C   0  0  0  0  0  0  0  0  0  0  0  0
    1.5000    0.0000    0.0000 C   0  0  0  0  0  0  0  0  0  0  0  0
    0.7500   -1.2990    0.0000 C   0  0  0  0  0  0  0  0  0  0  0  0
   -0.7500   -1.2990    0.0000 C   0  0  0  0  0  0  0  0  0  0  0  0
   -1.5000    0.0000    0.0000 C   0  0  0  0  0  0  0  0  0  0  0  0
   -3.0000    0.0000    0.0000 C   0  0  0  0  0  0  0  0  0  0  0  0
   -3.7500    1.2990    0.0000 C   0  0  0  0  0  0  0  0  0  0  0  0
   -5.2500    1.2990    0.0000 C   0  0  0  0  0  0  0  0  0  0  0  0
   -6.0000    0.0000    0.0000 C   0  0  0  0  0  0  0  0  0  0  0  0
   -5.2500   -1.2990    0.0000 C   0  0  0  0  0  0  0  0  0  0  0  0
   -3.7500   -1.2990    0.0000 C   0  0  0  0  0  0  0  0  0  0  0  0
   -3.0000   -2.5981    0.0000 O   0  0  0  0  0  0  0  0  0  0  0  0
   -0.7500    1.2990    0.0000 C   0  0  0  0  0  0  0  0  0  0  0  0
    0.7500    1.2990    0.0000 C   0  0  0  0  0  0  0  0  0  0  0  0
    1.5000    2.5981    0.0000 C   0  0  0  0  0  0  0  0  0  0  0  0
    2.2500    3.8971    0.0000 F   0  0  0  0  0  0  0  0  0  0  0  0
    0.2010    3.3481    0.0000 F   0  0  0  0  0  0  0  0  0  0  0  0
    2.7990    1.8481    0.0000 F   0  0  0  0  0  0  0  0  0  0  0  0
  1  2  3  0
  2  3  1  0
  3  4  2  0
  4  5  1  0
  5  6  2  0
  7  6  1  1
  7  8  1  0
  8  9  1  0
  9 10  1  0
 10 11  1  0
 11 12  1  0
 12 13  1  1
  6 14  1  0
 14 15  2  0
 15 16  1  0
 16 17  1  0
 16 18  1  0
 16 19  1  0
 15  3  1  0
 12  7  1  0
M  END
>  <assay_chembl_id>  (247) 
CHEMBL1032459

>  <assay_description>  (247) 
Displacement of [3H]dihydrotestosterone from human androgen receptor expressed in Sf9 cells

>  <parent_molecule_chembl_id>  (247) 
CHEMBL458506

>  <canonical_smiles>  (247) 
N#Cc1ccc([C@@H]2CCCC[C@@H]2O)cc1C(F)(F)F

>  <standard_type>  (247) 
IC50

>  <standard_relation>  (247) 
=

>  <standard_value>  (247) 
1599.0

>  <standard_units>  (247) 
nM

>  <target_pref_name>  (247) 
Androgen Receptor

>  <target_chembl_id>  (247) 
CHEMBL1871

>  <target_organism>  (247) 
Homo sapiens

>  <pchembl_median>  (247) 
6.44

$$$$
CHEMBL501627
     RDKit          2D

 19 20  0  0  0  0  0  0  0  0999 V2000
    4.5000    0.0000    0.0000 N   0  0  0  0  0  0  0  0  0  0  0  0
    3.0000    0.0000    0.0000 C   0  0  0  0  0  0  0  0  0  0  0  0
    1.5000    0.0000    0.0000 C   0  0  0  0  0  0  0  0  0  0  0  0
    0.7500   -1.2990    0.0000 C   0  0  0  0  0  0  0  0  0  0  0  0
   -0.7500   -1.2990    0.0000 C   0  0  0  0  0  0  0  0  0  0  0  0
   -1.5000    0.0000    0.0000 C   0  0  0  0  0  0  0  0  0  0  0  0
   -3.0000    0.0000    0.0000 C   0  0  0  0  0  0  0  0  0  0  0  0
   -3.7500    1.2990    0.0000 C   0  0  0  0  0  0  0  0  0  0  0  0
   -5.2500    1.2990    0.0000 C   0  0  0  0  0  0  0  0  0  0  0  0
   -6.0000    0.0000    0.0000 C   0  0  0  0  0  0  0  0  0  0  0  0
   -5.2500   -1.2990    0.0000 C   0  0  0  0  0  0  0  0  0  0  0  0
   -3.7500   -1.2990    0.0000 C   0  0  0  0  0  0  0  0  0  0  0  0
   -3.0000   -2.5981    0.0000 O   0  0  0  0  0  0  0  0  0  0  0  0
   -0.7500    1.2990    0.0000 C   0  0  0  0  0  0  0  0  0  0  0  0
    0.7500    1.2990    0.0000 C   0  0  0  0  0  0  0  0  0  0  0  0
    1.5000    2.5981    0.0000 C   0  0  0  0  0  0  0  0  0  0  0  0
    2.2500    3.8971    0.0000 F   0  0  0  0  0  0  0  0  0  0  0  0
    0.2010    3.3481    0.0000 F   0  0  0  0  0  0  0  0  0  0  0  0
    2.7990    1.8481    0.0000 F   0  0  0  0  0  0  0  0  0  0  0  0
  1  2  3  0
  2  3  1  0
  3  4  2  0
  4  5  1  0
  5  6  2  0
  6  7  1  0
  7  8  1  0
  8  9  1  0
  9 10  1  0
 10 11  1  0
 11 12  1  0
 12 13  1  0
  6 14  1  0
 14 15  2  0
 15 16  1  0
 16 17  1  0
 16 18  1  0
 16 19  1  0
 15  3  1  0
 12  7  1  0
M  END
>  <assay_chembl_id>  (248) 
CHEMBL1032459

>  <assay_description>  (248) 
Displacement of [3H]dihydrotestosterone from human androgen receptor expressed in Sf9 cells

>  <parent_molecule_chembl_id>  (248) 
CHEMBL501627

>  <canonical_smiles>  (248) 
N#Cc1ccc(C2CCCCC2O)cc1C(F)(F)F

>  <standard_type>  (248) 
IC50

>  <standard_relation>  (248) 
=

>  <standard_value>  (248) 
26.0

>  <standard_units>  (248) 
nM

>  <target_pref_name>  (248) 
Androgen Receptor

>  <target_chembl_id>  (248) 
CHEMBL1871

>  <target_organism>  (248) 
Homo sapiens

>  <pchembl_median>  (248) 
6.72

$$$$
CHEMBL248690
     RDKit          2D

 22 23  0  0  0  0  0  0  0  0999 V2000
    0.7500   -3.8971    0.0000 C   0  0  0  0  0  0  0  0  0  0  0  0
    1.5000   -2.5981    0.0000 C   0  0  0  0  0  0  0  0  0  0  0  0
    0.7500   -1.2990    0.0000 C   0  0  0  0  0  0  0  0  0  0  0  0
    1.5000    0.0000    0.0000 C   0  0  0  0  0  0  0  0  0  0  0  0
    0.7500    1.2990    0.0000 C   0  0  0  0  0  0  0  0  0  0  0  0
   -0.7500    1.2990    0.0000 C   0  0  0  0  0  0  0  0  0  0  0  0
   -1.5000    0.0000    0.0000 C   0  0  0  0  0  0  0  0  0  0  0  0
   -0.7500   -1.2990    0.0000 C   0  0  0  0  0  0  0  0  0  0  0  0
    3.0000   -2.5981    0.0000 N   0  0  0  0  0  0  0  0  0  0  0  0
    3.7500   -3.8971    0.0000 C   0  0  0  0  0  0  0  0  0  0  0  0
    3.7500   -1.2990    0.0000 C   0  0  0  0  0  0  0  0  0  0  0  0
    5.2500   -1.2990    0.0000 C   0  0  0  0  0  0  0  0  0  0  0  0
    6.0000   -0.0000    0.0000 C   0  0  0  0  0  0  0  0  0  0  0  0
    7.5000    0.0000    0.0000 C   0  0  0  0  0  0  0  0  0  0  0  0
    9.0000    0.0000    0.0000 F   0  0  0  0  0  0  0  0  0  0  0  0
    7.5000   -1.5000    0.0000 F   0  0  0  0  0  0  0  0  0  0  0  0
    7.5000    1.5000    0.0000 F   0  0  0  0  0  0  0  0  0  0  0  0
    5.2500    1.2990    0.0000 C   0  0  0  0  0  0  0  0  0  0  0  0
    6.0000    2.5981    0.0000 C   0  0  0  0  0  0  0  0  0  0  0  0
    6.7500    3.8971    0.0000 N   0  0  0  0  0  0  0  0  0  0  0  0
    3.7500    1.2990    0.0000 C   0  0  0  0  0  0  0  0  0  0  0  0
    3.0000   -0.0000    0.0000 N   0  0  0  0  0  0  0  0  0  0  0  0
  2  1  1  6
  2  3  1  0
  3  4  2  0
  4  5  1  0
  5  6  2  0
  6  7  1  0
  7  8  2  0
  2  9  1  0
  9 10  1  0
  9 11  1  0
 11 12  2  0
 12 13  1  0
 13 14  1  0
 14 15  1  0
 14 16  1  0
 14 17  1  0
 13 18  2  0
 18 19  1  0
 19 20  3  0
 18 21  1  0
 21 22  2  0
  8  3  1  0
 22 11  1  0
M  END
>  <assay_chembl_id>  (249) 
CHEMBL1032459

>  <assay_description>  (249) 
Displacement of [3H]dihydrotestosterone from human androgen receptor expressed in Sf9 cells

>  <parent_molecule_chembl_id>  (249) 
CHEMBL248690

>  <canonical_smiles>  (249) 
C[C@H](c1ccccc1)N(C)c1cc(C(F)(F)F)c(C#N)cn1

>  <standard_type>  (249) 
IC50

>  <standard_relation>  (249) 
=

>  <standard_value>  (249) 
20.0

>  <standard_units>  (249) 
nM

>  <target_pref_name>  (249) 
Androgen Receptor

>  <target_chembl_id>  (249) 
CHEMBL1871

>  <target_organism>  (249) 
Homo sapiens

>  <pchembl_median>  (249) 
5.92

$$$$
CHEMBL503575
     RDKit          2D

 17 18  0  0  0  0  0  0  0  0999 V2000
    3.7500   -1.2990    0.0000 C   0  0  0  0  0  0  0  0  0  0  0  0
    3.0000    0.0000    0.0000 O   0  0  0  0  0  0  0  0  0  0  0  0
    1.5000    0.0000    0.0000 C   0  0  0  0  0  0  0  0  0  0  0  0
    0.7500   -1.2990    0.0000 C   0  0  0  0  0  0  0  0  0  0  0  0
   -0.7500   -1.2990    0.0000 C   0  0  0  0  0  0  0  0  0  0  0  0
   -1.5000   -2.5981    0.0000 C   0  0  0  0  0  0  0  0  0  0  0  0
   -3.0000   -2.5981    0.0000 C   0  0  0  0  0  0  0  0  0  0  0  0
   -3.7500   -3.8971    0.0000 C   0  0  0  0  0  0  0  0  0  0  0  0
   -3.0000   -5.1962    0.0000 C   0  0  0  0  0  0  0  0  0  0  0  0
   -1.5000   -5.1962    0.0000 C   0  0  0  0  0  0  0  0  0  0  0  0
   -0.7500   -3.8971    0.0000 C   0  0  0  0  0  0  0  0  0  0  0  0
    0.7500   -3.8971    0.0000 O   0  0  0  0  0  0  0  0  0  0  0  0
   -1.5000    0.0000    0.0000 C   0  0  0  0  0  0  0  0  0  0  0  0
   -0.7500    1.2990    0.0000 C   0  0  0  0  0  0  0  0  0  0  0  0
    0.7500    1.2990    0.0000 C   0  0  0  0  0  0  0  0  0  0  0  0
    1.5000    2.5981    0.0000 C   0  0  0  0  0  0  0  0  0  0  0  0
    2.2500    3.8971    0.0000 N   0  0  0  0  0  0  0  0  0  0  0  0
  1  2  1  0
  2  3  1  0
  3  4  2  0
  4  5  1  0
  5  6  1  0
  6  7  2  0
  7  8  1  0
  8  9  2  0
  9 10  1  0
 10 11  2  0
 11 12  1  0
  5 13  2  0
 13 14  1  0
 14 15  2  0
 15 16  1  0
 16 17  3  0
 15  3  1  0
 11  6  1  0
M  END
>  <assay_chembl_id>  (250) 
CHEMBL1032459

>  <assay_description>  (250) 
Displacement of [3H]dihydrotestosterone from human androgen receptor expressed in Sf9 cells

>  <parent_molecule_chembl_id>  (250) 
CHEMBL503575

>  <canonical_smiles>  (250) 
COc1cc(-c2ccccc2O)ccc1C#N

>  <standard_type>  (250) 
IC50

>  <standard_relation>  (250) 
=

>  <standard_value>  (250) 
37.0

>  <standard_units>  (250) 
nM

>  <target_pref_name>  (250) 
Androgen Receptor

>  <target_chembl_id>  (250) 
CHEMBL1871

>  <target_organism>  (250) 
Homo sapiens

>  <pchembl_median>  (250) 
5.45

$$$$
CHEMBL559246
     RDKit          2D

 22 25  0  0  0  0  0  0  0  0999 V2000
   -6.9177    4.3013    0.0000 C   0  0  0  0  0  0  0  0  0  0  0  0
   -5.4912    4.7648    0.0000 N   0  0  0  0  0  0  0  0  0  0  0  0
   -5.1793    6.2320    0.0000 C   0  0  0  0  0  0  0  0  0  0  0  0
   -6.2940    7.2357    0.0000 O   0  0  0  0  0  0  0  0  0  0  0  0
   -3.7527    6.6955    0.0000 C   0  0  0  0  0  0  0  0  0  0  0  0
   -2.6380    5.6918    0.0000 C   0  0  0  0  0  0  0  0  0  0  0  0
   -2.9499    4.2246    0.0000 C   0  0  0  0  0  0  0  0  0  0  0  0
   -1.5233    4.6881    0.0000 C   0  0  0  0  0  0  0  0  0  0  0  0
   -1.8351    3.2209    0.0000 C   0  0  0  0  0  0  0  0  0  0  0  0
   -0.4086    3.6844    0.0000 C   0  0  0  0  0  0  0  0  0  0  0  0
    0.7062    2.6807    0.0000 C   0  0  0  0  0  0  0  0  0  0  0  0
    0.3943    1.2135    0.0000 C   0  0  0  0  0  0  0  0  0  0  0  0
    1.8615    1.5254    0.0000 C   0  0  0  0  0  0  0  0  0  0  0  0
    1.2760    0.0000    0.0000 C   0  0  0  0  0  0  0  0  0  0  0  0
    2.7760    0.0000    0.0000 O   0  0  0  0  0  0  0  0  0  0  0  0
    0.3943   -1.2135    0.0000 C   0  0  0  0  0  0  0  0  0  0  0  0
   -1.0323   -0.7500    0.0000 C   0  0  0  0  0  0  0  0  0  0  0  0
   -1.0323    0.7500    0.0000 C   0  0  0  0  0  0  0  0  0  0  0  0
   -2.1470    1.7537    0.0000 C   0  0  0  0  0  0  0  0  0  0  0  0
   -3.5736    1.2902    0.0000 C   0  0  0  0  0  0  0  0  0  0  0  0
   -4.6883    2.2939    0.0000 C   0  0  0  0  0  0  0  0  0  0  0  0
   -4.3764    3.7611    0.0000 C   0  0  0  0  0  0  0  0  0  0  0  0
  1  2  1  0
  2  3  1  0
  3  4  2  0
  3  5  1  0
  5  6  2  0
  6  7  1  0
  7  8  1  1
  7  9  1  0
  9 10  1  1
 10 11  1  0
 11 12  1  0
 12 13  1  1
 12 14  1  0
 14 15  1  1
 14 16  1  0
 16 17  1  0
 18 17  1  1
 18 19  1  0
 19 20  1  6
 20 21  1  0
 22 21  1  1
 22  2  1  0
 22  7  1  0
 19  9  1  0
 18 12  1  0
M  END
>  <assay_chembl_id>  (251) 
CHEMBL1062413

>  <assay_description>  (251) 
Displacement of [3H]methyltrienolone from androgen receptor in human MDA-MB-453 cells

>  <parent_molecule_chembl_id>  (251) 
CHEMBL559246

>  <canonical_smiles>  (251) 
CN1C(=O)C=C[C@]2(C)[C@H]3CC[C@]4(C)[C@@H](O)CC[C@H]4[C@@H]3CC[C@@H]12

>  <standard_type>  (251) 
IC50

>  <standard_relation>  (251) 
=

>  <standard_value>  (251) 
7.0

>  <standard_units>  (251) 
nM

>  <target_pref_name>  (251) 
Androgen Receptor

>  <target_chembl_id>  (251) 
CHEMBL1871

>  <target_organism>  (251) 
Homo sapiens

>  <pchembl_median>  (251) 
4.88

$$$$
CHEMBL538137
     RDKit          2D

 23 26  0  0  0  0  0  0  0  0999 V2000
   -4.4231    2.5537    0.0000 C   0  0  0  0  0  0  0  0  0  0  0  0
   -3.1240    1.8037    0.0000 C   0  0  0  0  0  0  0  0  0  0  0  0
   -2.9672    0.3119    0.0000 C   0  0  0  0  0  0  0  0  0  0  0  0
   -1.5000    0.0000    0.0000 C   0  0  0  0  0  0  0  0  0  0  0  0
   -0.7500   -1.2990    0.0000 C   0  0  0  0  0  0  0  0  0  0  0  0
   -1.5000   -2.5981    0.0000 C   0  0  0  0  0  0  0  0  0  0  0  0
   -0.7500   -3.8971    0.0000 C   0  0  0  0  0  0  0  0  0  0  0  0
    0.7500   -3.8971    0.0000 C   0  0  0  0  0  0  0  0  0  0  0  0
    1.5000   -5.1962    0.0000 N   0  0  0  0  0  0  0  0  0  0  0  0
    0.7500   -6.4952    0.0000 C   0  0  0  0  0  0  0  0  0  0  0  0
    3.0000   -5.1962    0.0000 C   0  0  0  0  0  0  0  0  0  0  0  0
    3.7500   -6.4952    0.0000 O   0  0  0  0  0  0  0  0  0  0  0  0
    3.7500   -3.8971    0.0000 C   0  0  0  0  0  0  0  0  0  0  0  0
    3.0000   -2.5981    0.0000 C   0  0  0  0  0  0  0  0  0  0  0  0
    1.5000   -2.5981    0.0000 C   0  0  0  0  0  0  0  0  0  0  0  0
    2.2500   -1.2990    0.0000 C   0  0  0  0  0  0  0  0  0  0  0  0
    0.7500   -1.2990    0.0000 C   0  0  0  0  0  0  0  0  0  0  0  0
    1.5000    0.0000    0.0000 C   0  0  0  0  0  0  0  0  0  0  0  0
    0.7500    1.2990    0.0000 C   0  0  0  0  0  0  0  0  0  0  0  0
   -0.7500    1.2990    0.0000 C   0  0  0  0  0  0  0  0  0  0  0  0
   -0.1399    2.6694    0.0000 C   0  0  0  0  0  0  0  0  0  0  0  0
   -1.7537    2.4138    0.0000 C   0  0  0  0  0  0  0  0  0  0  0  0
   -1.4418    3.8810    0.0000 O   0  0  0  0  0  0  0  0  0  0  0  0
  2  1  1  1
  2  3  1  0
  4  3  1  6
  4  5  1  0
  5  6  1  1
  6  7  1  0
  8  7  1  6
  8  9  1  0
  9 10  1  0
  9 11  1  0
 11 12  2  0
 11 13  1  0
 13 14  2  0
 14 15  1  0
 15 16  1  6
 15 17  1  0
 17 18  1  6
 18 19  1  0
 19 20  1  0
 20 21  1  6
 20 22  1  0
 22 23  1  6
 22  2  1  0
 20  4  1  0
 17  5  1  0
 15  8  1  0
M  END
>  <assay_chembl_id>  (252) 
CHEMBL1062413

>  <assay_description>  (252) 
Displacement of [3H]methyltrienolone from androgen receptor in human MDA-MB-453 cells

>  <parent_molecule_chembl_id>  (252) 
CHEMBL538137

>  <canonical_smiles>  (252) 
C[C@@H]1C[C@H]2[C@@H]3CC[C@H]4N(C)C(=O)C=C[C@]4(C)[C@H]3CC[C@]2(C)[C@H]1O

>  <standard_type>  (252) 
IC50

>  <standard_relation>  (252) 
=

>  <standard_value>  (252) 
31.0

>  <standard_units>  (252) 
nM

>  <target_pref_name>  (252) 
Androgen Receptor

>  <target_chembl_id>  (252) 
CHEMBL1871

>  <target_organism>  (252) 
Homo sapiens

>  <pchembl_median>  (252) 
5.29

$$$$
CHEMBL538877
     RDKit          2D

 25 28  0  0  0  0  0  0  0  0999 V2000
   -5.7221    4.8037    0.0000 C   0  0  0  0  0  0  0  0  0  0  0  0
   -4.4231    4.0537    0.0000 O   0  0  0  0  0  0  0  0  0  0  0  0
   -4.4231    2.5537    0.0000 C   0  0  0  0  0  0  0  0  0  0  0  0
   -3.1240    1.8037    0.0000 C   0  0  0  0  0  0  0  0  0  0  0  0
   -2.9672    0.3119    0.0000 C   0  0  0  0  0  0  0  0  0  0  0  0
   -1.5000    0.0000    0.0000 C   0  0  0  0  0  0  0  0  0  0  0  0
   -0.7500   -1.2990    0.0000 C   0  0  0  0  0  0  0  0  0  0  0  0
   -1.5000   -2.5981    0.0000 C   0  0  0  0  0  0  0  0  0  0  0  0
   -0.7500   -3.8971    0.0000 C   0  0  0  0  0  0  0  0  0  0  0  0
    0.7500   -3.8971    0.0000 C   0  0  0  0  0  0  0  0  0  0  0  0
    1.5000   -5.1962    0.0000 N   0  0  0  0  0  0  0  0  0  0  0  0
    0.7500   -6.4952    0.0000 C   0  0  0  0  0  0  0  0  0  0  0  0
    3.0000   -5.1962    0.0000 C   0  0  0  0  0  0  0  0  0  0  0  0
    3.7500   -6.4952    0.0000 O   0  0  0  0  0  0  0  0  0  0  0  0
    3.7500   -3.8971    0.0000 C   0  0  0  0  0  0  0  0  0  0  0  0
    3.0000   -2.5981    0.0000 C   0  0  0  0  0  0  0  0  0  0  0  0
    1.5000   -2.5981    0.0000 C   0  0  0  0  0  0  0  0  0  0  0  0
    2.2500   -1.2990    0.0000 C   0  0  0  0  0  0  0  0  0  0  0  0
    0.7500   -1.2990    0.0000 C   0  0  0  0  0  0  0  0  0  0  0  0
    1.5000    0.0000    0.0000 C   0  0  0  0  0  0  0  0  0  0  0  0
    0.7500    1.2990    0.0000 C   0  0  0  0  0  0  0  0  0  0  0  0
   -0.7500    1.2990    0.0000 C   0  0  0  0  0  0  0  0  0  0  0  0
   -0.1399    2.6694    0.0000 C   0  0  0  0  0  0  0  0  0  0  0  0
   -1.7537    2.4138    0.0000 C   0  0  0  0  0  0  0  0  0  0  0  0
   -1.4418    3.8810    0.0000 O   0  0  0  0  0  0  0  0  0  0  0  0
  1  2  1  0
  2  3  1  0
  4  3  1  1
  4  5  1  0
  6  5  1  6
  6  7  1  0
  7  8  1  1
  8  9  1  0
 10  9  1  6
 10 11  1  0
 11 12  1  0
 11 13  1  0
 13 14  2  0
 13 15  1  0
 15 16  2  0
 16 17  1  0
 17 18  1  6
 17 19  1  0
 19 20  1  6
 20 21  1  0
 21 22  1  0
 22 23  1  6
 22 24  1  0
 24 25  1  6
 24  4  1  0
 22  6  1  0
 19  7  1  0
 17 10  1  0
M  END
>  <assay_chembl_id>  (253) 
CHEMBL1062413

>  <assay_description>  (253) 
Displacement of [3H]methyltrienolone from androgen receptor in human MDA-MB-453 cells

>  <parent_molecule_chembl_id>  (253) 
CHEMBL538877

>  <canonical_smiles>  (253) 
COC[C@@H]1C[C@H]2[C@@H]3CC[C@H]4N(C)C(=O)C=C[C@]4(C)[C@H]3CC[C@]2(C)[C@H]1O

>  <standard_type>  (253) 
IC50

>  <standard_relation>  (253) 
=

>  <standard_value>  (253) 
24.0

>  <standard_units>  (253) 
nM

>  <target_pref_name>  (253) 
Androgen Receptor

>  <target_chembl_id>  (253) 
CHEMBL1871

>  <target_organism>  (253) 
Homo sapiens

>  <pchembl_median>  (253) 
5.01

$$$$
CHEMBL556229
     RDKit          2D

 30 34  0  0  0  0  0  0  0  0999 V2000
    3.0000    0.0000    0.0000 C   0  0  0  0  0  0  0  0  0  0  0  0
    1.5000    0.0000    0.0000 N   0  0  0  0  0  0  0  0  0  0  0  0
    0.7500   -1.2990    0.0000 C   0  0  0  0  0  0  0  0  0  0  0  0
    1.5000   -2.5981    0.0000 O   0  0  0  0  0  0  0  0  0  0  0  0
   -0.7500   -1.2990    0.0000 C   0  0  0  0  0  0  0  0  0  0  0  0
   -1.5000    0.0000    0.0000 C   0  0  0  0  0  0  0  0  0  0  0  0
   -0.7500    1.2990    0.0000 C   0  0  0  0  0  0  0  0  0  0  0  0
   -2.2500    1.2990    0.0000 C   0  0  0  0  0  0  0  0  0  0  0  0
   -1.5000    2.5981    0.0000 C   0  0  0  0  0  0  0  0  0  0  0  0
   -3.0000    2.5981    0.0000 C   0  0  0  0  0  0  0  0  0  0  0  0
   -3.7500    3.8971    0.0000 C   0  0  0  0  0  0  0  0  0  0  0  0
   -3.0000    5.1962    0.0000 C   0  0  0  0  0  0  0  0  0  0  0  0
   -4.4918    5.3529    0.0000 C   0  0  0  0  0  0  0  0  0  0  0  0
   -3.4635    6.6227    0.0000 C   0  0  0  0  0  0  0  0  0  0  0  0
   -4.8901    7.0863    0.0000 O   0  0  0  0  0  0  0  0  0  0  0  0
   -2.2500    7.5044    0.0000 C   0  0  0  0  0  0  0  0  0  0  0  0
   -2.2500    9.0044    0.0000 C   0  0  0  0  0  0  0  0  0  0  0  0
   -0.9510    9.7544    0.0000 C   0  0  0  0  0  0  0  0  0  0  0  0
    0.3481    9.0044    0.0000 C   0  0  0  0  0  0  0  0  0  0  0  0
    1.6471    9.7544    0.0000 C   0  0  0  0  0  0  0  0  0  0  0  0
    1.6471   11.2544    0.0000 C   0  0  0  0  0  0  0  0  0  0  0  0
    0.3481   12.0044    0.0000 C   0  0  0  0  0  0  0  0  0  0  0  0
    0.3481   13.5044    0.0000 F   0  0  0  0  0  0  0  0  0  0  0  0
   -0.9510   11.2544    0.0000 C   0  0  0  0  0  0  0  0  0  0  0  0
   -1.0365    6.6227    0.0000 C   0  0  0  0  0  0  0  0  0  0  0  0
   -1.5000    5.1962    0.0000 C   0  0  0  0  0  0  0  0  0  0  0  0
   -0.7500    3.8971    0.0000 C   0  0  0  0  0  0  0  0  0  0  0  0
    0.7500    3.8971    0.0000 C   0  0  0  0  0  0  0  0  0  0  0  0
    1.5000    2.5981    0.0000 C   0  0  0  0  0  0  0  0  0  0  0  0
    0.7500    1.2990    0.0000 C   0  0  0  0  0  0  0  0  0  0  0  0
  1  2  1  0
  2  3  1  0
  3  4  2  0
  3  5  1  0
  5  6  2  0
  6  7  1  0
  7  8  1  1
  7  9  1  0
  9 10  1  1
 10 11  1  0
 11 12  1  0
 12 13  1  1
 12 14  1  0
 14 15  1  1
 14 16  1  0
 16 17  1  6
 17 18  1  0
 18 19  2  0
 19 20  1  0
 20 21  2  0
 21 22  1  0
 22 23  1  0
 22 24  2  0
 16 25  1  0
 26 25  1  1
 26 27  1  0
 27 28  1  6
 28 29  1  0
 30 29  1  1
 30  2  1  0
 30  7  1  0
 27  9  1  0
 26 12  1  0
 24 18  1  0
M  END
>  <assay_chembl_id>  (254) 
CHEMBL1062413

>  <assay_description>  (254) 
Displacement of [3H]methyltrienolone from androgen receptor in human MDA-MB-453 cells

>  <parent_molecule_chembl_id>  (254) 
CHEMBL556229

>  <canonical_smiles>  (254) 
CN1C(=O)C=C[C@]2(C)[C@H]3CC[C@]4(C)[C@@H](O)[C@H](Cc5cccc(F)c5)C[C@H]4[C@@H]3CC[C@@H]12

>  <standard_type>  (254) 
IC50

>  <standard_relation>  (254) 
=

>  <standard_value>  (254) 
23.0

>  <standard_units>  (254) 
nM

>  <target_pref_name>  (254) 
Androgen Receptor

>  <target_chembl_id>  (254) 
CHEMBL1871

>  <target_organism>  (254) 
Homo sapiens

>  <pchembl_median>  (254) 
4.3

$$$$
CHEMBL562471
     RDKit          2D

 30 34  0  0  0  0  0  0  0  0999 V2000
    3.0000    0.0000    0.0000 C   0  0  0  0  0  0  0  0  0  0  0  0
    1.5000    0.0000    0.0000 N   0  0  0  0  0  0  0  0  0  0  0  0
    0.7500   -1.2990    0.0000 C   0  0  0  0  0  0  0  0  0  0  0  0
    1.5000   -2.5981    0.0000 O   0  0  0  0  0  0  0  0  0  0  0  0
   -0.7500   -1.2990    0.0000 C   0  0  0  0  0  0  0  0  0  0  0  0
   -1.5000    0.0000    0.0000 C   0  0  0  0  0  0  0  0  0  0  0  0
   -0.7500    1.2990    0.0000 C   0  0  0  0  0  0  0  0  0  0  0  0
   -2.2500    1.2990    0.0000 C   0  0  0  0  0  0  0  0  0  0  0  0
   -1.5000    2.5981    0.0000 C   0  0  0  0  0  0  0  0  0  0  0  0
   -3.0000    2.5981    0.0000 C   0  0  0  0  0  0  0  0  0  0  0  0
   -3.7500    3.8971    0.0000 C   0  0  0  0  0  0  0  0  0  0  0  0
   -3.0000    5.1962    0.0000 C   0  0  0  0  0  0  0  0  0  0  0  0
   -4.4918    5.3529    0.0000 C   0  0  0  0  0  0  0  0  0  0  0  0
   -1.5000    5.1962    0.0000 C   0  0  0  0  0  0  0  0  0  0  0  0
   -1.0365    6.6227    0.0000 C   0  0  0  0  0  0  0  0  0  0  0  0
   -2.2500    7.5044    0.0000 C   0  0  0  0  0  0  0  0  0  0  0  0
   -2.2500    9.0044    0.0000 C   0  0  0  0  0  0  0  0  0  0  0  0
   -0.9510    9.7544    0.0000 C   0  0  0  0  0  0  0  0  0  0  0  0
    0.3481    9.0044    0.0000 C   0  0  0  0  0  0  0  0  0  0  0  0
    1.6471    9.7544    0.0000 C   0  0  0  0  0  0  0  0  0  0  0  0
    1.6471   11.2544    0.0000 C   0  0  0  0  0  0  0  0  0  0  0  0
    0.3481   12.0044    0.0000 C   0  0  0  0  0  0  0  0  0  0  0  0
    0.3481   13.5044    0.0000 F   0  0  0  0  0  0  0  0  0  0  0  0
   -0.9510   11.2544    0.0000 C   0  0  0  0  0  0  0  0  0  0  0  0
   -3.4635    6.6227    0.0000 C   0  0  0  0  0  0  0  0  0  0  0  0
   -4.8901    7.0863    0.0000 O   0  0  0  0  0  0  0  0  0  0  0  0
   -0.7500    3.8971    0.0000 C   0  0  0  0  0  0  0  0  0  0  0  0
    0.7500    3.8971    0.0000 C   0  0  0  0  0  0  0  0  0  0  0  0
    1.5000    2.5981    0.0000 C   0  0  0  0  0  0  0  0  0  0  0  0
    0.7500    1.2990    0.0000 C   0  0  0  0  0  0  0  0  0  0  0  0
  1  2  1  0
  2  3  1  0
  3  4  2  0
  3  5  1  0
  5  6  2  0
  6  7  1  0
  7  8  1  1
  7  9  1  0
  9 10  1  1
 10 11  1  0
 11 12  1  0
 12 13  1  1
 12 14  1  0
 14 15  1  1
 15 16  1  0
 16 17  2  0
 17 18  1  0
 18 19  2  0
 19 20  1  0
 20 21  2  0
 21 22  1  0
 22 23  1  0
 22 24  2  0
 16 25  1  0
 25 26  1  1
 14 27  1  0
 27 28  1  6
 28 29  1  0
 30 29  1  1
 30  2  1  0
 30  7  1  0
 27  9  1  0
 25 12  1  0
 24 18  1  0
M  END
>  <assay_chembl_id>  (255) 
CHEMBL1062413

>  <assay_description>  (255) 
Displacement of [3H]methyltrienolone from androgen receptor in human MDA-MB-453 cells

>  <parent_molecule_chembl_id>  (255) 
CHEMBL562471

>  <canonical_smiles>  (255) 
CN1C(=O)C=C[C@]2(C)[C@H]3CC[C@@]4(C)[C@@H](C/C(=C\c5cccc(F)c5)[C@@H]4O)[C@@H]3CC[C@@H]12

>  <standard_type>  (255) 
IC50

>  <standard_relation>  (255) 
=

>  <standard_value>  (255) 
27.0

>  <standard_units>  (255) 
nM

>  <target_pref_name>  (255) 
Androgen Receptor

>  <target_chembl_id>  (255) 
CHEMBL1871

>  <target_organism>  (255) 
Homo sapiens

>  <pchembl_median>  (255) 
5.27

$$$$
CHEMBL556431
     RDKit          2D

 31 35  0  0  0  0  0  0  0  0999 V2000
    3.0000    0.0000    0.0000 C   0  0  0  0  0  0  0  0  0  0  0  0
    1.5000    0.0000    0.0000 N   0  0  0  0  0  0  0  0  0  0  0  0
    0.7500   -1.2990    0.0000 C   0  0  0  0  0  0  0  0  0  0  0  0
    1.5000   -2.5981    0.0000 O   0  0  0  0  0  0  0  0  0  0  0  0
   -0.7500   -1.2990    0.0000 C   0  0  0  0  0  0  0  0  0  0  0  0
   -1.5000    0.0000    0.0000 C   0  0  0  0  0  0  0  0  0  0  0  0
   -0.7500    1.2990    0.0000 C   0  0  0  0  0  0  0  0  0  0  0  0
   -2.2500    1.2990    0.0000 C   0  0  0  0  0  0  0  0  0  0  0  0
   -1.5000    2.5981    0.0000 C   0  0  0  0  0  0  0  0  0  0  0  0
   -3.0000    2.5981    0.0000 C   0  0  0  0  0  0  0  0  0  0  0  0
   -3.7500    3.8971    0.0000 C   0  0  0  0  0  0  0  0  0  0  0  0
   -3.0000    5.1962    0.0000 C   0  0  0  0  0  0  0  0  0  0  0  0
   -4.4918    5.3529    0.0000 C   0  0  0  0  0  0  0  0  0  0  0  0
   -1.5000    5.1962    0.0000 C   0  0  0  0  0  0  0  0  0  0  0  0
   -1.0365    6.6227    0.0000 C   0  0  0  0  0  0  0  0  0  0  0  0
   -2.2500    7.5044    0.0000 C   0  0  0  0  0  0  0  0  0  0  0  0
   -2.2500    9.0044    0.0000 C   0  0  0  0  0  0  0  0  0  0  0  0
   -0.9510    9.7544    0.0000 C   0  0  0  0  0  0  0  0  0  0  0  0
    0.3481    9.0044    0.0000 C   0  0  0  0  0  0  0  0  0  0  0  0
    1.6471    9.7544    0.0000 C   0  0  0  0  0  0  0  0  0  0  0  0
    2.9462    9.0044    0.0000 F   0  0  0  0  0  0  0  0  0  0  0  0
    1.6471   11.2544    0.0000 C   0  0  0  0  0  0  0  0  0  0  0  0
    0.3481   12.0044    0.0000 C   0  0  0  0  0  0  0  0  0  0  0  0
    0.3481   13.5044    0.0000 F   0  0  0  0  0  0  0  0  0  0  0  0
   -0.9510   11.2544    0.0000 C   0  0  0  0  0  0  0  0  0  0  0  0
   -3.4635    6.6227    0.0000 C   0  0  0  0  0  0  0  0  0  0  0  0
   -4.8901    7.0863    0.0000 O   0  0  0  0  0  0  0  0  0  0  0  0
   -0.7500    3.8971    0.0000 C   0  0  0  0  0  0  0  0  0  0  0  0
    0.7500    3.8971    0.0000 C   0  0  0  0  0  0  0  0  0  0  0  0
    1.5000    2.5981    0.0000 C   0  0  0  0  0  0  0  0  0  0  0  0
    0.7500    1.2990    0.0000 C   0  0  0  0  0  0  0  0  0  0  0  0
  1  2  1  0
  2  3  1  0
  3  4  2  0
  3  5  1  0
  5  6  2  0
  6  7  1  0
  7  8  1  1
  7  9  1  0
  9 10  1  1
 10 11  1  0
 11 12  1  0
 12 13  1  1
 12 14  1  0
 14 15  1  1
 15 16  1  0
 16 17  2  0
 17 18  1  0
 18 19  2  0
 19 20  1  0
 20 21  1  0
 20 22  2  0
 22 23  1  0
 23 24  1  0
 23 25  2  0
 16 26  1  0
 26 27  1  1
 14 28  1  0
 28 29  1  6
 29 30  1  0
 31 30  1  1
 31  2  1  0
 31  7  1  0
 28  9  1  0
 26 12  1  0
 25 18  1  0
M  END
>  <assay_chembl_id>  (256) 
CHEMBL1062413

>  <assay_description>  (256) 
Displacement of [3H]methyltrienolone from androgen receptor in human MDA-MB-453 cells

>  <parent_molecule_chembl_id>  (256) 
CHEMBL556431

>  <canonical_smiles>  (256) 
CN1C(=O)C=C[C@]2(C)[C@H]3CC[C@@]4(C)[C@@H](C/C(=C\c5cc(F)cc(F)c5)[C@@H]4O)[C@@H]3CC[C@@H]12

>  <standard_type>  (256) 
IC50

>  <standard_relation>  (256) 
=

>  <standard_value>  (256) 
41.0

>  <standard_units>  (256) 
nM

>  <target_pref_name>  (256) 
Androgen Receptor

>  <target_chembl_id>  (256) 
CHEMBL1871

>  <target_organism>  (256) 
Homo sapiens

>  <pchembl_median>  (256) 
5.72

$$$$
CHEMBL560935
     RDKit          2D

 29 33  0  0  0  0  0  0  0  0999 V2000
    3.0000    0.0000    0.0000 C   0  0  0  0  0  0  0  0  0  0  0  0
    1.5000    0.0000    0.0000 N   0  0  0  0  0  0  0  0  0  0  0  0
    0.7500   -1.2990    0.0000 C   0  0  0  0  0  0  0  0  0  0  0  0
    1.5000   -2.5981    0.0000 O   0  0  0  0  0  0  0  0  0  0  0  0
   -0.7500   -1.2990    0.0000 C   0  0  0  0  0  0  0  0  0  0  0  0
   -1.5000    0.0000    0.0000 C   0  0  0  0  0  0  0  0  0  0  0  0
   -0.7500    1.2990    0.0000 C   0  0  0  0  0  0  0  0  0  0  0  0
   -2.2500    1.2990    0.0000 C   0  0  0  0  0  0  0  0  0  0  0  0
   -1.5000    2.5981    0.0000 C   0  0  0  0  0  0  0  0  0  0  0  0
   -3.0000    2.5981    0.0000 C   0  0  0  0  0  0  0  0  0  0  0  0
   -3.7500    3.8971    0.0000 C   0  0  0  0  0  0  0  0  0  0  0  0
   -3.0000    5.1962    0.0000 C   0  0  0  0  0  0  0  0  0  0  0  0
   -4.4918    5.3529    0.0000 C   0  0  0  0  0  0  0  0  0  0  0  0
   -1.5000    5.1962    0.0000 C   0  0  0  0  0  0  0  0  0  0  0  0
   -1.0365    6.6227    0.0000 C   0  0  0  0  0  0  0  0  0  0  0  0
   -2.2500    7.5044    0.0000 C   0  0  0  0  0  0  0  0  0  0  0  0
   -2.2500    9.0044    0.0000 C   0  0  0  0  0  0  0  0  0  0  0  0
   -0.9510    9.7544    0.0000 C   0  0  0  0  0  0  0  0  0  0  0  0
    0.3481    9.0044    0.0000 C   0  0  0  0  0  0  0  0  0  0  0  0
    1.6471    9.7544    0.0000 C   0  0  0  0  0  0  0  0  0  0  0  0
    1.6471   11.2544    0.0000 C   0  0  0  0  0  0  0  0  0  0  0  0
    0.3481   12.0044    0.0000 C   0  0  0  0  0  0  0  0  0  0  0  0
   -0.9510   11.2544    0.0000 C   0  0  0  0  0  0  0  0  0  0  0  0
   -3.4635    6.6227    0.0000 C   0  0  0  0  0  0  0  0  0  0  0  0
   -4.8901    7.0863    0.0000 O   0  0  0  0  0  0  0  0  0  0  0  0
   -0.7500    3.8971    0.0000 C   0  0  0  0  0  0  0  0  0  0  0  0
    0.7500    3.8971    0.0000 C   0  0  0  0  0  0  0  0  0  0  0  0
    1.5000    2.5981    0.0000 C   0  0  0  0  0  0  0  0  0  0  0  0
    0.7500    1.2990    0.0000 C   0  0  0  0  0  0  0  0  0  0  0  0
  1  2  1  0
  2  3  1  0
  3  4  2  0
  3  5  1  0
  5  6  2  0
  6  7  1  0
  7  8  1  1
  7  9  1  0
  9 10  1  1
 10 11  1  0
 11 12  1  0
 12 13  1  1
 12 14  1  0
 14 15  1  1
 15 16  1  0
 16 17  2  0
 17 18  1  0
 18 19  2  0
 19 20  1  0
 20 21  2  0
 21 22  1  0
 22 23  2  0
 16 24  1  0
 24 25  1  1
 14 26  1  0
 26 27  1  6
 27 28  1  0
 29 28  1  1
 29  2  1  0
 29  7  1  0
 26  9  1  0
 24 12  1  0
 23 18  1  0
M  END
>  <assay_chembl_id>  (257) 
CHEMBL1062413

>  <assay_description>  (257) 
Displacement of [3H]methyltrienolone from androgen receptor in human MDA-MB-453 cells

>  <parent_molecule_chembl_id>  (257) 
CHEMBL560935

>  <canonical_smiles>  (257) 
CN1C(=O)C=C[C@]2(C)[C@H]3CC[C@@]4(C)[C@@H](C/C(=C\c5ccccc5)[C@@H]4O)[C@@H]3CC[C@@H]12

>  <standard_type>  (257) 
IC50

>  <standard_relation>  (257) 
=

>  <standard_value>  (257) 
116.0

>  <standard_units>  (257) 
nM

>  <target_pref_name>  (257) 
Androgen Receptor

>  <target_chembl_id>  (257) 
CHEMBL1871

>  <target_organism>  (257) 
Homo sapiens

>  <pchembl_median>  (257) 
5.09

$$$$
CHEMBL557116
     RDKit          2D

 24 27  0  0  0  0  0  0  0  0999 V2000
   -5.7221    1.8037    0.0000 C   0  0  0  0  0  0  0  0  0  0  0  0
   -4.4231    2.5537    0.0000 C   0  0  0  0  0  0  0  0  0  0  0  0
   -3.1240    1.8037    0.0000 C   0  0  0  0  0  0  0  0  0  0  0  0
   -2.9672    0.3119    0.0000 C   0  0  0  0  0  0  0  0  0  0  0  0
   -1.5000    0.0000    0.0000 C   0  0  0  0  0  0  0  0  0  0  0  0
   -0.7500   -1.2990    0.0000 C   0  0  0  0  0  0  0  0  0  0  0  0
   -1.5000   -2.5981    0.0000 C   0  0  0  0  0  0  0  0  0  0  0  0
   -0.7500   -3.8971    0.0000 C   0  0  0  0  0  0  0  0  0  0  0  0
    0.7500   -3.8971    0.0000 C   0  0  0  0  0  0  0  0  0  0  0  0
    1.5000   -5.1962    0.0000 N   0  0  0  0  0  0  0  0  0  0  0  0
    0.7500   -6.4952    0.0000 C   0  0  0  0  0  0  0  0  0  0  0  0
    3.0000   -5.1962    0.0000 C   0  0  0  0  0  0  0  0  0  0  0  0
    3.7500   -6.4952    0.0000 O   0  0  0  0  0  0  0  0  0  0  0  0
    3.7500   -3.8971    0.0000 C   0  0  0  0  0  0  0  0  0  0  0  0
    3.0000   -2.5981    0.0000 C   0  0  0  0  0  0  0  0  0  0  0  0
    1.5000   -2.5981    0.0000 C   0  0  0  0  0  0  0  0  0  0  0  0
    2.2500   -1.2990    0.0000 C   0  0  0  0  0  0  0  0  0  0  0  0
    0.7500   -1.2990    0.0000 C   0  0  0  0  0  0  0  0  0  0  0  0
    1.5000    0.0000    0.0000 C   0  0  0  0  0  0  0  0  0  0  0  0
    0.7500    1.2990    0.0000 C   0  0  0  0  0  0  0  0  0  0  0  0
   -0.7500    1.2990    0.0000 C   0  0  0  0  0  0  0  0  0  0  0  0
   -0.1399    2.6694    0.0000 C   0  0  0  0  0  0  0  0  0  0  0  0
   -1.7537    2.4138    0.0000 C   0  0  0  0  0  0  0  0  0  0  0  0
   -1.4418    3.8810    0.0000 O   0  0  0  0  0  0  0  0  0  0  0  0
  1  2  1  0
  2  3  2  0
  3  4  1  0
  5  4  1  6
  5  6  1  0
  6  7  1  1
  7  8  1  0
  9  8  1  6
  9 10  1  0
 10 11  1  0
 10 12  1  0
 12 13  2  0
 12 14  1  0
 14 15  2  0
 15 16  1  0
 16 17  1  6
 16 18  1  0
 18 19  1  6
 19 20  1  0
 20 21  1  0
 21 22  1  6
 21 23  1  0
 23 24  1  6
 23  3  1  0
 21  5  1  0
 18  6  1  0
 16  9  1  0
M  END
>  <assay_chembl_id>  (258) 
CHEMBL1062413

>  <assay_description>  (258) 
Displacement of [3H]methyltrienolone from androgen receptor in human MDA-MB-453 cells

>  <parent_molecule_chembl_id>  (258) 
CHEMBL557116

>  <canonical_smiles>  (258) 
C/C=C1\C[C@H]2[C@@H]3CC[C@H]4N(C)C(=O)C=C[C@]4(C)[C@H]3CC[C@]2(C)[C@H]1O

>  <standard_type>  (258) 
IC50

>  <standard_relation>  (258) 
=

>  <standard_value>  (258) 
35.0

>  <standard_units>  (258) 
nM

>  <target_pref_name>  (258) 
Androgen Receptor

>  <target_chembl_id>  (258) 
CHEMBL1871

>  <target_organism>  (258) 
Homo sapiens

>  <pchembl_median>  (258) 
5.35

$$$$
CHEMBL559485
     RDKit          2D

 29 33  0  0  0  0  0  0  0  0999 V2000
    3.0000    0.0000    0.0000 C   0  0  0  0  0  0  0  0  0  0  0  0
    1.5000    0.0000    0.0000 N   0  0  0  0  0  0  0  0  0  0  0  0
    0.7500   -1.2990    0.0000 C   0  0  0  0  0  0  0  0  0  0  0  0
    1.5000   -2.5981    0.0000 O   0  0  0  0  0  0  0  0  0  0  0  0
   -0.7500   -1.2990    0.0000 C   0  0  0  0  0  0  0  0  0  0  0  0
   -1.5000    0.0000    0.0000 C   0  0  0  0  0  0  0  0  0  0  0  0
   -0.7500    1.2990    0.0000 C   0  0  0  0  0  0  0  0  0  0  0  0
   -2.2500    1.2990    0.0000 C   0  0  0  0  0  0  0  0  0  0  0  0
   -1.5000    2.5981    0.0000 C   0  0  0  0  0  0  0  0  0  0  0  0
   -3.0000    2.5981    0.0000 C   0  0  0  0  0  0  0  0  0  0  0  0
   -3.7500    3.8971    0.0000 C   0  0  0  0  0  0  0  0  0  0  0  0
   -3.0000    5.1962    0.0000 C   0  0  0  0  0  0  0  0  0  0  0  0
   -4.4918    5.3529    0.0000 C   0  0  0  0  0  0  0  0  0  0  0  0
   -1.5000    5.1962    0.0000 C   0  0  0  0  0  0  0  0  0  0  0  0
   -1.0365    6.6227    0.0000 C   0  0  0  0  0  0  0  0  0  0  0  0
   -2.2500    7.5044    0.0000 C   0  0  0  0  0  0  0  0  0  0  0  0
   -2.2500    9.0044    0.0000 C   0  0  0  0  0  0  0  0  0  0  0  0
   -0.9510    9.7544    0.0000 C   0  0  0  0  0  0  0  0  0  0  0  0
    0.3481    9.0044    0.0000 C   0  0  0  0  0  0  0  0  0  0  0  0
    1.6471    9.7544    0.0000 C   0  0  0  0  0  0  0  0  0  0  0  0
    1.6471   11.2544    0.0000 C   0  0  0  0  0  0  0  0  0  0  0  0
    0.3481   12.0044    0.0000 C   0  0  0  0  0  0  0  0  0  0  0  0
   -0.9510   11.2544    0.0000 N   0  0  0  0  0  0  0  0  0  0  0  0
   -3.4635    6.6227    0.0000 C   0  0  0  0  0  0  0  0  0  0  0  0
   -4.8901    7.0863    0.0000 O   0  0  0  0  0  0  0  0  0  0  0  0
   -0.7500    3.8971    0.0000 C   0  0  0  0  0  0  0  0  0  0  0  0
    0.7500    3.8971    0.0000 C   0  0  0  0  0  0  0  0  0  0  0  0
    1.5000    2.5981    0.0000 C   0  0  0  0  0  0  0  0  0  0  0  0
    0.7500    1.2990    0.0000 C   0  0  0  0  0  0  0  0  0  0  0  0
  1  2  1  0
  2  3  1  0
  3  4  2  0
  3  5  1  0
  5  6  2  0
  6  7  1  0
  7  8  1  1
  7  9  1  0
  9 10  1  1
 10 11  1  0
 11 12  1  0
 12 13  1  1
 12 14  1  0
 14 15  1  1
 15 16  1  0
 16 17  2  0
 17 18  1  0
 18 19  2  0
 19 20  1  0
 20 21  2  0
 21 22  1  0
 22 23  2  0
 16 24  1  0
 24 25  1  1
 14 26  1  0
 26 27  1  6
 27 28  1  0
 29 28  1  1
 29  2  1  0
 29  7  1  0
 26  9  1  0
 24 12  1  0
 23 18  1  0
M  END
>  <assay_chembl_id>  (259) 
CHEMBL1062413

>  <assay_description>  (259) 
Displacement of [3H]methyltrienolone from androgen receptor in human MDA-MB-453 cells

>  <parent_molecule_chembl_id>  (259) 
CHEMBL559485

>  <canonical_smiles>  (259) 
CN1C(=O)C=C[C@]2(C)[C@H]3CC[C@@]4(C)[C@@H](C/C(=C\c5ccccn5)[C@@H]4O)[C@@H]3CC[C@@H]12

>  <standard_type>  (259) 
IC50

>  <standard_relation>  (259) 
=

>  <standard_value>  (259) 
292.0

>  <standard_units>  (259) 
nM

>  <target_pref_name>  (259) 
Androgen Receptor

>  <target_chembl_id>  (259) 
CHEMBL1871

>  <target_organism>  (259) 
Homo sapiens

>  <pchembl_median>  (259) 
4.6

$$$$
CHEMBL556848
     RDKit          2D

 29 33  0  0  0  0  0  0  0  0999 V2000
    3.0000    0.0000    0.0000 C   0  0  0  0  0  0  0  0  0  0  0  0
    1.5000    0.0000    0.0000 N   0  0  0  0  0  0  0  0  0  0  0  0
    0.7500   -1.2990    0.0000 C   0  0  0  0  0  0  0  0  0  0  0  0
    1.5000   -2.5981    0.0000 O   0  0  0  0  0  0  0  0  0  0  0  0
   -0.7500   -1.2990    0.0000 C   0  0  0  0  0  0  0  0  0  0  0  0
   -1.5000    0.0000    0.0000 C   0  0  0  0  0  0  0  0  0  0  0  0
   -0.7500    1.2990    0.0000 C   0  0  0  0  0  0  0  0  0  0  0  0
   -2.2500    1.2990    0.0000 C   0  0  0  0  0  0  0  0  0  0  0  0
   -1.5000    2.5981    0.0000 C   0  0  0  0  0  0  0  0  0  0  0  0
   -3.0000    2.5981    0.0000 C   0  0  0  0  0  0  0  0  0  0  0  0
   -3.7500    3.8971    0.0000 C   0  0  0  0  0  0  0  0  0  0  0  0
   -3.0000    5.1962    0.0000 C   0  0  0  0  0  0  0  0  0  0  0  0
   -4.4918    5.3529    0.0000 C   0  0  0  0  0  0  0  0  0  0  0  0
   -1.5000    5.1962    0.0000 C   0  0  0  0  0  0  0  0  0  0  0  0
   -1.0365    6.6227    0.0000 C   0  0  0  0  0  0  0  0  0  0  0  0
   -2.2500    7.5044    0.0000 C   0  0  0  0  0  0  0  0  0  0  0  0
   -2.2500    9.0044    0.0000 C   0  0  0  0  0  0  0  0  0  0  0  0
   -0.9510    9.7544    0.0000 C   0  0  0  0  0  0  0  0  0  0  0  0
    0.3481    9.0044    0.0000 C   0  0  0  0  0  0  0  0  0  0  0  0
    1.6471    9.7544    0.0000 C   0  0  0  0  0  0  0  0  0  0  0  0
    1.6471   11.2544    0.0000 N   0  0  0  0  0  0  0  0  0  0  0  0
    0.3481   12.0044    0.0000 C   0  0  0  0  0  0  0  0  0  0  0  0
   -0.9510   11.2544    0.0000 C   0  0  0  0  0  0  0  0  0  0  0  0
   -3.4635    6.6227    0.0000 C   0  0  0  0  0  0  0  0  0  0  0  0
   -4.8901    7.0863    0.0000 O   0  0  0  0  0  0  0  0  0  0  0  0
   -0.7500    3.8971    0.0000 C   0  0  0  0  0  0  0  0  0  0  0  0
    0.7500    3.8971    0.0000 C   0  0  0  0  0  0  0  0  0  0  0  0
    1.5000    2.5981    0.0000 C   0  0  0  0  0  0  0  0  0  0  0  0
    0.7500    1.2990    0.0000 C   0  0  0  0  0  0  0  0  0  0  0  0
  1  2  1  0
  2  3  1  0
  3  4  2  0
  3  5  1  0
  5  6  2  0
  6  7  1  0
  7  8  1  1
  7  9  1  0
  9 10  1  1
 10 11  1  0
 11 12  1  0
 12 13  1  1
 12 14  1  0
 14 15  1  1
 15 16  1  0
 16 17  2  0
 17 18  1  0
 18 19  2  0
 19 20  1  0
 20 21  2  0
 21 22  1  0
 22 23  2  0
 16 24  1  0
 24 25  1  1
 14 26  1  0
 26 27  1  6
 27 28  1  0
 29 28  1  1
 29  2  1  0
 29  7  1  0
 26  9  1  0
 24 12  1  0
 23 18  1  0
M  END
>  <assay_chembl_id>  (260) 
CHEMBL1062413

>  <assay_description>  (260) 
Displacement of [3H]methyltrienolone from androgen receptor in human MDA-MB-453 cells

>  <parent_molecule_chembl_id>  (260) 
CHEMBL556848

>  <canonical_smiles>  (260) 
CN1C(=O)C=C[C@]2(C)[C@H]3CC[C@@]4(C)[C@@H](C/C(=C\c5ccncc5)[C@@H]4O)[C@@H]3CC[C@@H]12

>  <standard_type>  (260) 
IC50

>  <standard_relation>  (260) 
=

>  <standard_value>  (260) 
129.0

>  <standard_units>  (260) 
nM

>  <target_pref_name>  (260) 
Androgen Receptor

>  <target_chembl_id>  (260) 
CHEMBL1871

>  <target_organism>  (260) 
Homo sapiens

>  <pchembl_median>  (260) 
4.92

$$$$
CHEMBL562780
     RDKit          2D

 29 33  0  0  0  0  0  0  0  0999 V2000
    3.0000    0.0000    0.0000 C   0  0  0  0  0  0  0  0  0  0  0  0
    1.5000    0.0000    0.0000 N   0  0  0  0  0  0  0  0  0  0  0  0
    0.7500   -1.2990    0.0000 C   0  0  0  0  0  0  0  0  0  0  0  0
    1.5000   -2.5981    0.0000 O   0  0  0  0  0  0  0  0  0  0  0  0
   -0.7500   -1.2990    0.0000 C   0  0  0  0  0  0  0  0  0  0  0  0
   -1.5000    0.0000    0.0000 C   0  0  0  0  0  0  0  0  0  0  0  0
   -0.7500    1.2990    0.0000 C   0  0  0  0  0  0  0  0  0  0  0  0
   -2.2500    1.2990    0.0000 C   0  0  0  0  0  0  0  0  0  0  0  0
   -1.5000    2.5981    0.0000 C   0  0  0  0  0  0  0  0  0  0  0  0
   -3.0000    2.5981    0.0000 C   0  0  0  0  0  0  0  0  0  0  0  0
   -3.7500    3.8971    0.0000 C   0  0  0  0  0  0  0  0  0  0  0  0
   -3.0000    5.1962    0.0000 C   0  0  0  0  0  0  0  0  0  0  0  0
   -4.4918    5.3529    0.0000 C   0  0  0  0  0  0  0  0  0  0  0  0
   -1.5000    5.1962    0.0000 C   0  0  0  0  0  0  0  0  0  0  0  0
   -1.0365    6.6227    0.0000 C   0  0  0  0  0  0  0  0  0  0  0  0
   -2.2500    7.5044    0.0000 C   0  0  0  0  0  0  0  0  0  0  0  0
   -2.2500    9.0044    0.0000 C   0  0  0  0  0  0  0  0  0  0  0  0
   -0.9510    9.7544    0.0000 C   0  0  0  0  0  0  0  0  0  0  0  0
    0.3481    9.0044    0.0000 C   0  0  0  0  0  0  0  0  0  0  0  0
    1.6471    9.7544    0.0000 C   0  0  0  0  0  0  0  0  0  0  0  0
    1.6471   11.2544    0.0000 C   0  0  0  0  0  0  0  0  0  0  0  0
    0.3481   12.0044    0.0000 N   0  0  0  0  0  0  0  0  0  0  0  0
   -0.9510   11.2544    0.0000 C   0  0  0  0  0  0  0  0  0  0  0  0
   -3.4635    6.6227    0.0000 C   0  0  0  0  0  0  0  0  0  0  0  0
   -4.8901    7.0863    0.0000 O   0  0  0  0  0  0  0  0  0  0  0  0
   -0.7500    3.8971    0.0000 C   0  0  0  0  0  0  0  0  0  0  0  0
    0.7500    3.8971    0.0000 C   0  0  0  0  0  0  0  0  0  0  0  0
    1.5000    2.5981    0.0000 C   0  0  0  0  0  0  0  0  0  0  0  0
    0.7500    1.2990    0.0000 C   0  0  0  0  0  0  0  0  0  0  0  0
  1  2  1  0
  2  3  1  0
  3  4  2  0
  3  5  1  0
  5  6  2  0
  6  7  1  0
  7  8  1  1
  7  9  1  0
  9 10  1  1
 10 11  1  0
 11 12  1  0
 12 13  1  1
 12 14  1  0
 14 15  1  1
 15 16  1  0
 16 17  2  0
 17 18  1  0
 18 19  2  0
 19 20  1  0
 20 21  2  0
 21 22  1  0
 22 23  2  0
 16 24  1  0
 24 25  1  1
 14 26  1  0
 26 27  1  6
 27 28  1  0
 29 28  1  1
 29  2  1  0
 29  7  1  0
 26  9  1  0
 24 12  1  0
 23 18  1  0
M  END
>  <assay_chembl_id>  (261) 
CHEMBL1062413

>  <assay_description>  (261) 
Displacement of [3H]methyltrienolone from androgen receptor in human MDA-MB-453 cells

>  <parent_molecule_chembl_id>  (261) 
CHEMBL562780

>  <canonical_smiles>  (261) 
CN1C(=O)C=C[C@]2(C)[C@H]3CC[C@@]4(C)[C@@H](C/C(=C\c5cccnc5)[C@@H]4O)[C@@H]3CC[C@@H]12

>  <standard_type>  (261) 
IC50

>  <standard_relation>  (261) 
=

>  <standard_value>  (261) 
62.0

>  <standard_units>  (261) 
nM

>  <target_pref_name>  (261) 
Androgen Receptor

>  <target_chembl_id>  (261) 
CHEMBL1871

>  <target_organism>  (261) 
Homo sapiens

>  <pchembl_median>  (261) 
4.52

$$$$
CHEMBL551269
     RDKit          2D

 29 33  0  0  0  0  0  0  0  0999 V2000
    3.0000    0.0000    0.0000 C   0  0  0  0  0  0  0  0  0  0  0  0
    1.5000    0.0000    0.0000 N   0  0  0  0  0  0  0  0  0  0  0  0
    0.7500   -1.2990    0.0000 C   0  0  0  0  0  0  0  0  0  0  0  0
    1.5000   -2.5981    0.0000 O   0  0  0  0  0  0  0  0  0  0  0  0
   -0.7500   -1.2990    0.0000 C   0  0  0  0  0  0  0  0  0  0  0  0
   -1.5000    0.0000    0.0000 C   0  0  0  0  0  0  0  0  0  0  0  0
   -0.7500    1.2990    0.0000 C   0  0  0  0  0  0  0  0  0  0  0  0
   -2.2500    1.2990    0.0000 C   0  0  0  0  0  0  0  0  0  0  0  0
   -1.5000    2.5981    0.0000 C   0  0  0  0  0  0  0  0  0  0  0  0
   -3.0000    2.5981    0.0000 C   0  0  0  0  0  0  0  0  0  0  0  0
   -3.7500    3.8971    0.0000 C   0  0  0  0  0  0  0  0  0  0  0  0
   -3.0000    5.1962    0.0000 C   0  0  0  0  0  0  0  0  0  0  0  0
   -4.4918    5.3529    0.0000 C   0  0  0  0  0  0  0  0  0  0  0  0
   -1.5000    5.1962    0.0000 C   0  0  0  0  0  0  0  0  0  0  0  0
   -1.0365    6.6227    0.0000 C   0  0  0  0  0  0  0  0  0  0  0  0
   -2.2500    7.5044    0.0000 C   0  0  0  0  0  0  0  0  0  0  0  0
   -2.2500    9.0044    0.0000 C   0  0  0  0  0  0  0  0  0  0  0  0
   -0.9510    9.7544    0.0000 C   0  0  0  0  0  0  0  0  0  0  0  0
    0.3481    9.0044    0.0000 C   0  0  0  0  0  0  0  0  0  0  0  0
    1.6471    9.7544    0.0000 N   0  0  0  0  0  0  0  0  0  0  0  0
    1.6471   11.2544    0.0000 C   0  0  0  0  0  0  0  0  0  0  0  0
    0.3481   12.0044    0.0000 N   0  0  0  0  0  0  0  0  0  0  0  0
   -0.9510   11.2544    0.0000 C   0  0  0  0  0  0  0  0  0  0  0  0
   -3.4635    6.6227    0.0000 C   0  0  0  0  0  0  0  0  0  0  0  0
   -4.8901    7.0863    0.0000 O   0  0  0  0  0  0  0  0  0  0  0  0
   -0.7500    3.8971    0.0000 C   0  0  0  0  0  0  0  0  0  0  0  0
    0.7500    3.8971    0.0000 C   0  0  0  0  0  0  0  0  0  0  0  0
    1.5000    2.5981    0.0000 C   0  0  0  0  0  0  0  0  0  0  0  0
    0.7500    1.2990    0.0000 C   0  0  0  0  0  0  0  0  0  0  0  0
  1  2  1  0
  2  3  1  0
  3  4  2  0
  3  5  1  0
  5  6  2  0
  6  7  1  0
  7  8  1  1
  7  9  1  0
  9 10  1  1
 10 11  1  0
 11 12  1  0
 12 13  1  1
 12 14  1  0
 14 15  1  1
 15 16  1  0
 16 17  2  0
 17 18  1  0
 18 19  2  0
 19 20  1  0
 20 21  2  0
 21 22  1  0
 22 23  2  0
 16 24  1  0
 24 25  1  1
 14 26  1  0
 26 27  1  6
 27 28  1  0
 29 28  1  1
 29  2  1  0
 29  7  1  0
 26  9  1  0
 24 12  1  0
 23 18  1  0
M  END
>  <assay_chembl_id>  (262) 
CHEMBL1062413

>  <assay_description>  (262) 
Displacement of [3H]methyltrienolone from androgen receptor in human MDA-MB-453 cells

>  <parent_molecule_chembl_id>  (262) 
CHEMBL551269

>  <canonical_smiles>  (262) 
CN1C(=O)C=C[C@]2(C)[C@H]3CC[C@@]4(C)[C@@H](C/C(=C\c5cncnc5)[C@@H]4O)[C@@H]3CC[C@@H]12

>  <standard_type>  (262) 
IC50

>  <standard_relation>  (262) 
=

>  <standard_value>  (262) 
59.0

>  <standard_units>  (262) 
nM

>  <target_pref_name>  (262) 
Androgen Receptor

>  <target_chembl_id>  (262) 
CHEMBL1871

>  <target_organism>  (262) 
Homo sapiens

>  <pchembl_median>  (262) 
5.62

$$$$
CHEMBL551270
     RDKit          2D

 32 37  0  0  0  0  0  0  0  0999 V2000
    3.0000    0.0000    0.0000 C   0  0  0  0  0  0  0  0  0  0  0  0
    1.5000    0.0000    0.0000 N   0  0  0  0  0  0  0  0  0  0  0  0
    0.7500   -1.2990    0.0000 C   0  0  0  0  0  0  0  0  0  0  0  0
    1.5000   -2.5981    0.0000 O   0  0  0  0  0  0  0  0  0  0  0  0
   -0.7500   -1.2990    0.0000 C   0  0  0  0  0  0  0  0  0  0  0  0
   -1.5000    0.0000    0.0000 C   0  0  0  0  0  0  0  0  0  0  0  0
   -0.7500    1.2990    0.0000 C   0  0  0  0  0  0  0  0  0  0  0  0
   -2.2500    1.2990    0.0000 C   0  0  0  0  0  0  0  0  0  0  0  0
   -1.5000    2.5981    0.0000 C   0  0  0  0  0  0  0  0  0  0  0  0
   -3.0000    2.5981    0.0000 C   0  0  0  0  0  0  0  0  0  0  0  0
   -3.7500    3.8971    0.0000 C   0  0  0  0  0  0  0  0  0  0  0  0
   -3.0000    5.1962    0.0000 C   0  0  0  0  0  0  0  0  0  0  0  0
   -4.4918    5.3529    0.0000 C   0  0  0  0  0  0  0  0  0  0  0  0
   -1.5000    5.1962    0.0000 C   0  0  0  0  0  0  0  0  0  0  0  0
   -1.0365    6.6227    0.0000 C   0  0  0  0  0  0  0  0  0  0  0  0
   -2.2500    7.5044    0.0000 C   0  0  0  0  0  0  0  0  0  0  0  0
   -2.2500    9.0044    0.0000 C   0  0  0  0  0  0  0  0  0  0  0  0
   -0.9510    9.7544    0.0000 C   0  0  0  0  0  0  0  0  0  0  0  0
    0.3481    9.0044    0.0000 C   0  0  0  0  0  0  0  0  0  0  0  0
    1.6471    9.7544    0.0000 N   0  0  0  0  0  0  0  0  0  0  0  0
    1.6471   11.2544    0.0000 C   0  0  0  0  0  0  0  0  0  0  0  0
    2.9462   12.0044    0.0000 C   0  0  0  0  0  0  0  0  0  0  0  0
    3.6962   13.3035    0.0000 C   0  0  0  0  0  0  0  0  0  0  0  0
    4.4462   12.0044    0.0000 C   0  0  0  0  0  0  0  0  0  0  0  0
    0.3481   12.0044    0.0000 N   0  0  0  0  0  0  0  0  0  0  0  0
   -0.9510   11.2544    0.0000 C   0  0  0  0  0  0  0  0  0  0  0  0
   -3.4635    6.6227    0.0000 C   0  0  0  0  0  0  0  0  0  0  0  0
   -4.8901    7.0863    0.0000 O   0  0  0  0  0  0  0  0  0  0  0  0
   -0.7500    3.8971    0.0000 C   0  0  0  0  0  0  0  0  0  0  0  0
    0.7500    3.8971    0.0000 C   0  0  0  0  0  0  0  0  0  0  0  0
    1.5000    2.5981    0.0000 C   0  0  0  0  0  0  0  0  0  0  0  0
    0.7500    1.2990    0.0000 C   0  0  0  0  0  0  0  0  0  0  0  0
  1  2  1  0
  2  3  1  0
  3  4  2  0
  3  5  1  0
  5  6  2  0
  6  7  1  0
  7  8  1  1
  7  9  1  0
  9 10  1  1
 10 11  1  0
 11 12  1  0
 12 13  1  1
 12 14  1  0
 14 15  1  1
 15 16  1  0
 16 17  2  0
 17 18  1  0
 18 19  2  0
 19 20  1  0
 20 21  2  0
 21 22  1  0
 22 23  1  0
 23 24  1  0
 21 25  1  0
 25 26  2  0
 16 27  1  0
 27 28  1  1
 14 29  1  0
 29 30  1  6
 30 31  1  0
 32 31  1  1
 32  2  1  0
 32  7  1  0
 29  9  1  0
 27 12  1  0
 26 18  1  0
 24 22  1  0
M  END
>  <assay_chembl_id>  (263) 
CHEMBL1062413

>  <assay_description>  (263) 
Displacement of [3H]methyltrienolone from androgen receptor in human MDA-MB-453 cells

>  <parent_molecule_chembl_id>  (263) 
CHEMBL551270

>  <canonical_smiles>  (263) 
CN1C(=O)C=C[C@]2(C)[C@H]3CC[C@@]4(C)[C@@H](C/C(=C\c5cnc(C6CC6)nc5)[C@@H]4O)[C@@H]3CC[C@@H]12

>  <standard_type>  (263) 
IC50

>  <standard_relation>  (263) 
=

>  <standard_value>  (263) 
51.0

>  <standard_units>  (263) 
nM

>  <target_pref_name>  (263) 
Androgen Receptor

>  <target_chembl_id>  (263) 
CHEMBL1871

>  <target_organism>  (263) 
Homo sapiens

>  <pchembl_median>  (263) 
5.72

$$$$
CHEMBL559878
     RDKit          2D

 31 35  0  0  0  0  0  0  0  0999 V2000
  -10.9182    0.3037    0.0000 C   0  0  0  0  0  0  0  0  0  0  0  0
   -9.6192   -0.4463    0.0000 O   0  0  0  0  0  0  0  0  0  0  0  0
   -8.3202    0.3037    0.0000 C   0  0  0  0  0  0  0  0  0  0  0  0
   -8.3202    1.8037    0.0000 N   0  0  0  0  0  0  0  0  0  0  0  0
   -7.0211    2.5537    0.0000 C   0  0  0  0  0  0  0  0  0  0  0  0
   -5.7221    1.8037    0.0000 C   0  0  0  0  0  0  0  0  0  0  0  0
   -4.4231    2.5537    0.0000 C   0  0  0  0  0  0  0  0  0  0  0  0
   -3.1240    1.8037    0.0000 C   0  0  0  0  0  0  0  0  0  0  0  0
   -2.9672    0.3119    0.0000 C   0  0  0  0  0  0  0  0  0  0  0  0
   -1.5000    0.0000    0.0000 C   0  0  0  0  0  0  0  0  0  0  0  0
   -0.7500   -1.2990    0.0000 C   0  0  0  0  0  0  0  0  0  0  0  0
   -1.5000   -2.5981    0.0000 C   0  0  0  0  0  0  0  0  0  0  0  0
   -0.7500   -3.8971    0.0000 C   0  0  0  0  0  0  0  0  0  0  0  0
    0.7500   -3.8971    0.0000 C   0  0  0  0  0  0  0  0  0  0  0  0
    1.5000   -5.1962    0.0000 N   0  0  0  0  0  0  0  0  0  0  0  0
    0.7500   -6.4952    0.0000 C   0  0  0  0  0  0  0  0  0  0  0  0
    3.0000   -5.1962    0.0000 C   0  0  0  0  0  0  0  0  0  0  0  0
    3.7500   -6.4952    0.0000 O   0  0  0  0  0  0  0  0  0  0  0  0
    3.7500   -3.8971    0.0000 C   0  0  0  0  0  0  0  0  0  0  0  0
    3.0000   -2.5981    0.0000 C   0  0  0  0  0  0  0  0  0  0  0  0
    1.5000   -2.5981    0.0000 C   0  0  0  0  0  0  0  0  0  0  0  0
    2.2500   -1.2990    0.0000 C   0  0  0  0  0  0  0  0  0  0  0  0
    0.7500   -1.2990    0.0000 C   0  0  0  0  0  0  0  0  0  0  0  0
    1.5000    0.0000    0.0000 C   0  0  0  0  0  0  0  0  0  0  0  0
    0.7500    1.2990    0.0000 C   0  0  0  0  0  0  0  0  0  0  0  0
   -0.7500    1.2990    0.0000 C   0  0  0  0  0  0  0  0  0  0  0  0
   -0.1399    2.6694    0.0000 C   0  0  0  0  0  0  0  0  0  0  0  0
   -1.7537    2.4138    0.0000 C   0  0  0  0  0  0  0  0  0  0  0  0
   -1.4418    3.8810    0.0000 O   0  0  0  0  0  0  0  0  0  0  0  0
   -5.7221    0.3037    0.0000 C   0  0  0  0  0  0  0  0  0  0  0  0
   -7.0211   -0.4463    0.0000 N   0  0  0  0  0  0  0  0  0  0  0  0
  1  2  1  0
  2  3  1  0
  3  4  2  0
  4  5  1  0
  5  6  2  0
  6  7  1  0
  7  8  2  0
  8  9  1  0
 10  9  1  6
 10 11  1  0
 11 12  1  1
 12 13  1  0
 14 13  1  6
 14 15  1  0
 15 16  1  0
 15 17  1  0
 17 18  2  0
 17 19  1  0
 19 20  2  0
 20 21  1  0
 21 22  1  6
 21 23  1  0
 23 24  1  6
 24 25  1  0
 25 26  1  0
 26 27  1  6
 26 28  1  0
 28 29  1  6
  6 30  1  0
 30 31  2  0
 31  3  1  0
 28  8  1  0
 26 10  1  0
 23 11  1  0
 21 14  1  0
M  END
>  <assay_chembl_id>  (264) 
CHEMBL1062413

>  <assay_description>  (264) 
Displacement of [3H]methyltrienolone from androgen receptor in human MDA-MB-453 cells

>  <parent_molecule_chembl_id>  (264) 
CHEMBL559878

>  <canonical_smiles>  (264) 
COc1ncc(/C=C2\C[C@H]3[C@@H]4CC[C@H]5N(C)C(=O)C=C[C@]5(C)[C@H]4CC[C@]3(C)[C@H]2O)cn1

>  <standard_type>  (264) 
IC50

>  <standard_relation>  (264) 
=

>  <standard_value>  (264) 
11.0

>  <standard_units>  (264) 
nM

>  <target_pref_name>  (264) 
Androgen Receptor

>  <target_chembl_id>  (264) 
CHEMBL1871

>  <target_organism>  (264) 
Homo sapiens

>  <pchembl_median>  (264) 
8.15

$$$$
CHEMBL549375
     RDKit          2D

 30 34  0  0  0  0  0  0  0  0999 V2000
   -9.6192   -0.4463    0.0000 C   0  0  0  0  0  0  0  0  0  0  0  0
   -8.3202    0.3037    0.0000 C   0  0  0  0  0  0  0  0  0  0  0  0
   -8.3202    1.8037    0.0000 N   0  0  0  0  0  0  0  0  0  0  0  0
   -7.0211    2.5537    0.0000 C   0  0  0  0  0  0  0  0  0  0  0  0
   -5.7221    1.8037    0.0000 C   0  0  0  0  0  0  0  0  0  0  0  0
   -4.4231    2.5537    0.0000 C   0  0  0  0  0  0  0  0  0  0  0  0
   -3.1240    1.8037    0.0000 C   0  0  0  0  0  0  0  0  0  0  0  0
   -2.9672    0.3119    0.0000 C   0  0  0  0  0  0  0  0  0  0  0  0
   -1.5000    0.0000    0.0000 C   0  0  0  0  0  0  0  0  0  0  0  0
   -0.7500   -1.2990    0.0000 C   0  0  0  0  0  0  0  0  0  0  0  0
   -1.5000   -2.5981    0.0000 C   0  0  0  0  0  0  0  0  0  0  0  0
   -0.7500   -3.8971    0.0000 C   0  0  0  0  0  0  0  0  0  0  0  0
    0.7500   -3.8971    0.0000 C   0  0  0  0  0  0  0  0  0  0  0  0
    1.5000   -5.1962    0.0000 N   0  0  0  0  0  0  0  0  0  0  0  0
    0.7500   -6.4952    0.0000 C   0  0  0  0  0  0  0  0  0  0  0  0
    3.0000   -5.1962    0.0000 C   0  0  0  0  0  0  0  0  0  0  0  0
    3.7500   -6.4952    0.0000 O   0  0  0  0  0  0  0  0  0  0  0  0
    3.7500   -3.8971    0.0000 C   0  0  0  0  0  0  0  0  0  0  0  0
    3.0000   -2.5981    0.0000 C   0  0  0  0  0  0  0  0  0  0  0  0
    1.5000   -2.5981    0.0000 C   0  0  0  0  0  0  0  0  0  0  0  0
    2.2500   -1.2990    0.0000 C   0  0  0  0  0  0  0  0  0  0  0  0
    0.7500   -1.2990    0.0000 C   0  0  0  0  0  0  0  0  0  0  0  0
    1.5000    0.0000    0.0000 C   0  0  0  0  0  0  0  0  0  0  0  0
    0.7500    1.2990    0.0000 C   0  0  0  0  0  0  0  0  0  0  0  0
   -0.7500    1.2990    0.0000 C   0  0  0  0  0  0  0  0  0  0  0  0
   -0.1399    2.6694    0.0000 C   0  0  0  0  0  0  0  0  0  0  0  0
   -1.7537    2.4138    0.0000 C   0  0  0  0  0  0  0  0  0  0  0  0
   -1.4418    3.8810    0.0000 O   0  0  0  0  0  0  0  0  0  0  0  0
   -5.7221    0.3037    0.0000 C   0  0  0  0  0  0  0  0  0  0  0  0
   -7.0211   -0.4463    0.0000 N   0  0  0  0  0  0  0  0  0  0  0  0
  1  2  1  0
  2  3  2  0
  3  4  1  0
  4  5  2  0
  5  6  1  0
  6  7  2  0
  7  8  1  0
  9  8  1  6
  9 10  1  0
 10 11  1  1
 11 12  1  0
 13 12  1  6
 13 14  1  0
 14 15  1  0
 14 16  1  0
 16 17  2  0
 16 18  1  0
 18 19  2  0
 19 20  1  0
 20 21  1  6
 20 22  1  0
 22 23  1  6
 23 24  1  0
 24 25  1  0
 25 26  1  6
 25 27  1  0
 27 28  1  6
  5 29  1  0
 29 30  2  0
 30  2  1  0
 27  7  1  0
 25  9  1  0
 22 10  1  0
 20 13  1  0
M  END
>  <assay_chembl_id>  (265) 
CHEMBL1062413

>  <assay_description>  (265) 
Displacement of [3H]methyltrienolone from androgen receptor in human MDA-MB-453 cells

>  <parent_molecule_chembl_id>  (265) 
CHEMBL549375

>  <canonical_smiles>  (265) 
Cc1ncc(/C=C2\C[C@H]3[C@@H]4CC[C@H]5N(C)C(=O)C=C[C@]5(C)[C@H]4CC[C@]3(C)[C@H]2O)cn1

>  <standard_type>  (265) 
IC50

>  <standard_relation>  (265) 
=

>  <standard_value>  (265) 
43.0

>  <standard_units>  (265) 
nM

>  <target_pref_name>  (265) 
Androgen Receptor

>  <target_chembl_id>  (265) 
CHEMBL1871

>  <target_organism>  (265) 
Homo sapiens

>  <pchembl_median>  (265) 
7.08

$$$$
CHEMBL563597
     RDKit          2D

 31 35  0  0  0  0  0  0  0  0999 V2000
  -10.9182    0.3037    0.0000 C   0  0  0  0  0  0  0  0  0  0  0  0
   -9.6192   -0.4463    0.0000 N   0  0  0  0  0  0  0  0  0  0  0  0
   -8.3202    0.3037    0.0000 C   0  0  0  0  0  0  0  0  0  0  0  0
   -8.3202    1.8037    0.0000 N   0  0  0  0  0  0  0  0  0  0  0  0
   -7.0211    2.5537    0.0000 C   0  0  0  0  0  0  0  0  0  0  0  0
   -5.7221    1.8037    0.0000 C   0  0  0  0  0  0  0  0  0  0  0  0
   -4.4231    2.5537    0.0000 C   0  0  0  0  0  0  0  0  0  0  0  0
   -3.1240    1.8037    0.0000 C   0  0  0  0  0  0  0  0  0  0  0  0
   -2.9672    0.3119    0.0000 C   0  0  0  0  0  0  0  0  0  0  0  0
   -1.5000    0.0000    0.0000 C   0  0  0  0  0  0  0  0  0  0  0  0
   -0.7500   -1.2990    0.0000 C   0  0  0  0  0  0  0  0  0  0  0  0
   -1.5000   -2.5981    0.0000 C   0  0  0  0  0  0  0  0  0  0  0  0
   -0.7500   -3.8971    0.0000 C   0  0  0  0  0  0  0  0  0  0  0  0
    0.7500   -3.8971    0.0000 C   0  0  0  0  0  0  0  0  0  0  0  0
    1.5000   -5.1962    0.0000 N   0  0  0  0  0  0  0  0  0  0  0  0
    0.7500   -6.4952    0.0000 C   0  0  0  0  0  0  0  0  0  0  0  0
    3.0000   -5.1962    0.0000 C   0  0  0  0  0  0  0  0  0  0  0  0
    3.7500   -6.4952    0.0000 O   0  0  0  0  0  0  0  0  0  0  0  0
    3.7500   -3.8971    0.0000 C   0  0  0  0  0  0  0  0  0  0  0  0
    3.0000   -2.5981    0.0000 C   0  0  0  0  0  0  0  0  0  0  0  0
    1.5000   -2.5981    0.0000 C   0  0  0  0  0  0  0  0  0  0  0  0
    2.2500   -1.2990    0.0000 C   0  0  0  0  0  0  0  0  0  0  0  0
    0.7500   -1.2990    0.0000 C   0  0  0  0  0  0  0  0  0  0  0  0
    1.5000    0.0000    0.0000 C   0  0  0  0  0  0  0  0  0  0  0  0
    0.7500    1.2990    0.0000 C   0  0  0  0  0  0  0  0  0  0  0  0
   -0.7500    1.2990    0.0000 C   0  0  0  0  0  0  0  0  0  0  0  0
   -0.1399    2.6694    0.0000 C   0  0  0  0  0  0  0  0  0  0  0  0
   -1.7537    2.4138    0.0000 C   0  0  0  0  0  0  0  0  0  0  0  0
   -1.4418    3.8810    0.0000 O   0  0  0  0  0  0  0  0  0  0  0  0
   -5.7221    0.3037    0.0000 C   0  0  0  0  0  0  0  0  0  0  0  0
   -7.0211   -0.4463    0.0000 N   0  0  0  0  0  0  0  0  0  0  0  0
  1  2  1  0
  2  3  1  0
  3  4  2  0
  4  5  1  0
  5  6  2  0
  6  7  1  0
  7  8  2  0
  8  9  1  0
 10  9  1  6
 10 11  1  0
 11 12  1  1
 12 13  1  0
 14 13  1  6
 14 15  1  0
 15 16  1  0
 15 17  1  0
 17 18  2  0
 17 19  1  0
 19 20  2  0
 20 21  1  0
 21 22  1  6
 21 23  1  0
 23 24  1  6
 24 25  1  0
 25 26  1  0
 26 27  1  6
 26 28  1  0
 28 29  1  6
  6 30  1  0
 30 31  2  0
 31  3  1  0
 28  8  1  0
 26 10  1  0
 23 11  1  0
 21 14  1  0
M  END
>  <assay_chembl_id>  (266) 
CHEMBL1062413

>  <assay_description>  (266) 
Displacement of [3H]methyltrienolone from androgen receptor in human MDA-MB-453 cells

>  <parent_molecule_chembl_id>  (266) 
CHEMBL563597

>  <canonical_smiles>  (266) 
CNc1ncc(/C=C2\C[C@H]3[C@@H]4CC[C@H]5N(C)C(=O)C=C[C@]5(C)[C@H]4CC[C@]3(C)[C@H]2O)cn1

>  <standard_type>  (266) 
IC50

>  <standard_relation>  (266) 
=

>  <standard_value>  (266) 
31.0

>  <standard_units>  (266) 
nM

>  <target_pref_name>  (266) 
Androgen Receptor

>  <target_chembl_id>  (266) 
CHEMBL1871

>  <target_organism>  (266) 
Homo sapiens

>  <pchembl_median>  (266) 
7.77

$$$$
CHEMBL562394
     RDKit          2D

 35 40  0  0  0  0  0  0  0  0999 V2000
    3.0000    0.0000    0.0000 C   0  0  0  0  0  0  0  0  0  0  0  0
    1.5000    0.0000    0.0000 N   0  0  0  0  0  0  0  0  0  0  0  0
    0.7500   -1.2990    0.0000 C   0  0  0  0  0  0  0  0  0  0  0  0
    1.5000   -2.5981    0.0000 O   0  0  0  0  0  0  0  0  0  0  0  0
   -0.7500   -1.2990    0.0000 C   0  0  0  0  0  0  0  0  0  0  0  0
   -1.5000    0.0000    0.0000 C   0  0  0  0  0  0  0  0  0  0  0  0
   -0.7500    1.2990    0.0000 C   0  0  0  0  0  0  0  0  0  0  0  0
   -2.2500    1.2990    0.0000 C   0  0  0  0  0  0  0  0  0  0  0  0
   -1.5000    2.5981    0.0000 C   0  0  0  0  0  0  0  0  0  0  0  0
   -3.0000    2.5981    0.0000 C   0  0  0  0  0  0  0  0  0  0  0  0
   -3.7500    3.8971    0.0000 C   0  0  0  0  0  0  0  0  0  0  0  0
   -3.0000    5.1962    0.0000 C   0  0  0  0  0  0  0  0  0  0  0  0
   -4.4918    5.3529    0.0000 C   0  0  0  0  0  0  0  0  0  0  0  0
   -1.5000    5.1962    0.0000 C   0  0  0  0  0  0  0  0  0  0  0  0
   -1.0365    6.6227    0.0000 C   0  0  0  0  0  0  0  0  0  0  0  0
   -2.2500    7.5044    0.0000 C   0  0  0  0  0  0  0  0  0  0  0  0
   -2.2500    9.0044    0.0000 C   0  0  0  0  0  0  0  0  0  0  0  0
   -0.9510    9.7544    0.0000 C   0  0  0  0  0  0  0  0  0  0  0  0
    0.3481    9.0044    0.0000 C   0  0  0  0  0  0  0  0  0  0  0  0
    1.6471    9.7544    0.0000 N   0  0  0  0  0  0  0  0  0  0  0  0
    1.6471   11.2544    0.0000 C   0  0  0  0  0  0  0  0  0  0  0  0
    2.9462   12.0044    0.0000 C   0  0  0  0  0  0  0  0  0  0  0  0
    4.2452   11.2544    0.0000 C   0  0  0  0  0  0  0  0  0  0  0  0
    5.5442   12.0044    0.0000 C   0  0  0  0  0  0  0  0  0  0  0  0
    5.5442   13.5044    0.0000 C   0  0  0  0  0  0  0  0  0  0  0  0
    4.2452   14.2544    0.0000 C   0  0  0  0  0  0  0  0  0  0  0  0
    2.9462   13.5044    0.0000 N   0  0  0  0  0  0  0  0  0  0  0  0
    0.3481   12.0044    0.0000 N   0  0  0  0  0  0  0  0  0  0  0  0
   -0.9510   11.2544    0.0000 C   0  0  0  0  0  0  0  0  0  0  0  0
   -3.4635    6.6227    0.0000 C   0  0  0  0  0  0  0  0  0  0  0  0
   -4.8901    7.0863    0.0000 O   0  0  0  0  0  0  0  0  0  0  0  0
   -0.7500    3.8971    0.0000 C   0  0  0  0  0  0  0  0  0  0  0  0
    0.7500    3.8971    0.0000 C   0  0  0  0  0  0  0  0  0  0  0  0
    1.5000    2.5981    0.0000 C   0  0  0  0  0  0  0  0  0  0  0  0
    0.7500    1.2990    0.0000 C   0  0  0  0  0  0  0  0  0  0  0  0
  1  2  1  0
  2  3  1  0
  3  4  2  0
  3  5  1  0
  5  6  2  0
  6  7  1  0
  7  8  1  1
  7  9  1  0
  9 10  1  1
 10 11  1  0
 11 12  1  0
 12 13  1  1
 12 14  1  0
 14 15  1  1
 15 16  1  0
 16 17  2  0
 17 18  1  0
 18 19  2  0
 19 20  1  0
 20 21  2  0
 21 22  1  0
 22 23  2  0
 23 24  1  0
 24 25  2  0
 25 26  1  0
 26 27  2  0
 21 28  1  0
 28 29  2  0
 16 30  1  0
 30 31  1  1
 14 32  1  0
 32 33  1  6
 33 34  1  0
 35 34  1  1
 35  2  1  0
 35  7  1  0
 32  9  1  0
 30 12  1  0
 29 18  1  0
 27 22  1  0
M  END
>  <assay_chembl_id>  (267) 
CHEMBL1062413

>  <assay_description>  (267) 
Displacement of [3H]methyltrienolone from androgen receptor in human MDA-MB-453 cells

>  <parent_molecule_chembl_id>  (267) 
CHEMBL562394

>  <canonical_smiles>  (267) 
CN1C(=O)C=C[C@]2(C)[C@H]3CC[C@@]4(C)[C@@H](C/C(=C\c5cnc(-c6ccccn6)nc5)[C@@H]4O)[C@@H]3CC[C@@H]12

>  <standard_type>  (267) 
IC50

>  <standard_relation>  (267) 
=

>  <standard_value>  (267) 
715.0

>  <standard_units>  (267) 
nM

>  <target_pref_name>  (267) 
Androgen Receptor

>  <target_chembl_id>  (267) 
CHEMBL1871

>  <target_organism>  (267) 
Homo sapiens

>  <pchembl_median>  (267) 
7.19

$$$$
CHEMBL476292
     RDKit          2D

 19 21  0  0  0  0  0  0  0  0999 V2000
    3.7500   -1.2990    0.0000 C   0  0  0  0  0  0  0  0  0  0  0  0
    3.0000    0.0000    0.0000 O   0  0  0  0  0  0  0  0  0  0  0  0
    1.5000    0.0000    0.0000 C   0  0  0  0  0  0  0  0  0  0  0  0
    0.7500   -1.2990    0.0000 C   0  0  0  0  0  0  0  0  0  0  0  0
   -0.7500   -1.2990    0.0000 C   0  0  0  0  0  0  0  0  0  0  0  0
   -1.5000    0.0000    0.0000 C   0  0  0  0  0  0  0  0  0  0  0  0
   -0.7500    1.2990    0.0000 C   0  0  0  0  0  0  0  0  0  0  0  0
    0.7500    1.2990    0.0000 C   0  0  0  0  0  0  0  0  0  0  0  0
   -1.5000    2.5981    0.0000 C   0  0  0  0  0  0  0  0  0  0  0  0
   -0.7500    3.8971    0.0000 O   0  0  0  0  0  0  0  0  0  0  0  0
   -3.0000    2.5981    0.0000 C   0  0  0  0  0  0  0  0  0  0  0  0
   -3.7500    1.2990    0.0000 C   0  0  0  0  0  0  0  0  0  0  0  0
   -5.2500    1.2990    0.0000 C   0  0  0  0  0  0  0  0  0  0  0  0
   -6.0000    2.5981    0.0000 C   0  0  0  0  0  0  0  0  0  0  0  0
   -7.5000    2.5981    0.0000 C   0  0  0  0  0  0  0  0  0  0  0  0
   -8.2500    1.2990    0.0000 C   0  0  0  0  0  0  0  0  0  0  0  0
   -7.5000    0.0000    0.0000 C   0  0  0  0  0  0  0  0  0  0  0  0
   -6.0000    0.0000    0.0000 C   0  0  0  0  0  0  0  0  0  0  0  0
   -3.0000    0.0000    0.0000 O   0  0  0  0  0  0  0  0  0  0  0  0
  1  2  1  0
  2  3  1  0
  3  4  2  0
  4  5  1  0
  5  6  2  0
  6  7  1  0
  7  8  2  0
  7  9  1  0
  9 10  2  0
  9 11  1  0
 11 12  1  0
 12 13  1  0
 13 14  2  0
 14 15  1  0
 15 16  2  0
 16 17  1  0
 17 18  2  0
 12 19  1  0
  8  3  1  0
 18 13  1  0
 19  6  1  0
M  END
>  <assay_chembl_id>  (268) 
CHEMBL1052490

>  <assay_description>  (268) 
Antagonist activity at androgen receptor in human MDA-kb2 cells assessed as inhibition of DHT-induced luciferase activity by luciferase reporter gene assay

>  <parent_molecule_chembl_id>  (268) 
CHEMBL476292

>  <canonical_smiles>  (268) 
COc1ccc2c(c1)C(=O)CC(c1ccccc1)O2

>  <standard_type>  (268) 
IC50

>  <standard_relation>  (268) 
=

>  <standard_value>  (268) 
39500.0

>  <standard_units>  (268) 
nM

>  <target_pref_name>  (268) 
Androgen Receptor

>  <target_chembl_id>  (268) 
CHEMBL1871

>  <target_organism>  (268) 
Homo sapiens

>  <pchembl_median>  (268) 
5.82

$$$$
CHEMBL195033
     RDKit          2D

 18 20  0  0  0  0  0  0  0  0999 V2000
   -3.0000   -2.5981    0.0000 O   0  0  0  0  0  0  0  0  0  0  0  0
   -1.5000   -2.5981    0.0000 C   0  0  0  0  0  0  0  0  0  0  0  0
   -0.7500   -3.8971    0.0000 C   0  0  0  0  0  0  0  0  0  0  0  0
    0.7500   -3.8971    0.0000 C   0  0  0  0  0  0  0  0  0  0  0  0
    1.5000   -5.1962    0.0000 C   0  0  0  0  0  0  0  0  0  0  0  0
    0.7500   -6.4952    0.0000 C   0  0  0  0  0  0  0  0  0  0  0  0
    1.5000   -7.7942    0.0000 C   0  0  0  0  0  0  0  0  0  0  0  0
    3.0000   -7.7942    0.0000 C   0  0  0  0  0  0  0  0  0  0  0  0
    3.7500   -6.4952    0.0000 C   0  0  0  0  0  0  0  0  0  0  0  0
    3.0000   -5.1962    0.0000 C   0  0  0  0  0  0  0  0  0  0  0  0
    1.5000   -2.5981    0.0000 O   0  0  0  0  0  0  0  0  0  0  0  0
    0.7500   -1.2990    0.0000 C   0  0  0  0  0  0  0  0  0  0  0  0
    1.5000    0.0000    0.0000 C   0  0  0  0  0  0  0  0  0  0  0  0
    0.7500    1.2990    0.0000 C   0  0  0  0  0  0  0  0  0  0  0  0
   -0.7500    1.2990    0.0000 C   0  0  0  0  0  0  0  0  0  0  0  0
   -1.5000    2.5981    0.0000 O   0  0  0  0  0  0  0  0  0  0  0  0
   -1.5000    0.0000    0.0000 C   0  0  0  0  0  0  0  0  0  0  0  0
   -0.7500   -1.2990    0.0000 C   0  0  0  0  0  0  0  0  0  0  0  0
  1  2  2  0
  2  3  1  0
  3  4  1  0
  4  5  1  0
  5  6  2  0
  6  7  1  0
  7  8  2  0
  8  9  1  0
  9 10  2  0
  4 11  1  0
 11 12  1  0
 12 13  2  0
 13 14  1  0
 14 15  2  0
 15 16  1  0
 15 17  1  0
 17 18  2  0
 18  2  1  0
 10  5  1  0
 18 12  1  0
M  END
>  <assay_chembl_id>  (269) 
CHEMBL1052490

>  <assay_description>  (269) 
Antagonist activity at androgen receptor in human MDA-kb2 cells assessed as inhibition of DHT-induced luciferase activity by luciferase reporter gene assay

>  <parent_molecule_chembl_id>  (269) 
CHEMBL195033

>  <canonical_smiles>  (269) 
O=C1CC(c2ccccc2)Oc2ccc(O)cc21

>  <standard_type>  (269) 
IC50

>  <standard_relation>  (269) 
=

>  <standard_value>  (269) 
3300.0

>  <standard_units>  (269) 
nM

>  <target_pref_name>  (269) 
Androgen Receptor

>  <target_chembl_id>  (269) 
CHEMBL1871

>  <target_organism>  (269) 
Homo sapiens

>  <pchembl_median>  (269) 
7.14

$$$$
CHEMBL274318
     RDKit          2D

 17 19  0  0  0  0  0  0  0  0999 V2000
   -3.0000   -2.5981    0.0000 O   0  0  0  0  0  0  0  0  0  0  0  0
   -1.5000   -2.5981    0.0000 C   0  0  0  0  0  0  0  0  0  0  0  0
   -0.7500   -3.8971    0.0000 C   0  0  0  0  0  0  0  0  0  0  0  0
    0.7500   -3.8971    0.0000 C   0  0  0  0  0  0  0  0  0  0  0  0
    1.5000   -5.1962    0.0000 C   0  0  0  0  0  0  0  0  0  0  0  0
    0.7500   -6.4952    0.0000 C   0  0  0  0  0  0  0  0  0  0  0  0
    1.5000   -7.7942    0.0000 C   0  0  0  0  0  0  0  0  0  0  0  0
    3.0000   -7.7942    0.0000 C   0  0  0  0  0  0  0  0  0  0  0  0
    3.7500   -6.4952    0.0000 C   0  0  0  0  0  0  0  0  0  0  0  0
    3.0000   -5.1962    0.0000 C   0  0  0  0  0  0  0  0  0  0  0  0
    1.5000   -2.5981    0.0000 O   0  0  0  0  0  0  0  0  0  0  0  0
    0.7500   -1.2990    0.0000 C   0  0  0  0  0  0  0  0  0  0  0  0
    1.5000    0.0000    0.0000 C   0  0  0  0  0  0  0  0  0  0  0  0
    0.7500    1.2990    0.0000 C   0  0  0  0  0  0  0  0  0  0  0  0
   -0.7500    1.2990    0.0000 C   0  0  0  0  0  0  0  0  0  0  0  0
   -1.5000    0.0000    0.0000 C   0  0  0  0  0  0  0  0  0  0  0  0
   -0.7500   -1.2990    0.0000 C   0  0  0  0  0  0  0  0  0  0  0  0
  1  2  2  0
  2  3  1  0
  3  4  1  0
  4  5  1  0
  5  6  2  0
  6  7  1  0
  7  8  2  0
  8  9  1  0
  9 10  2  0
  4 11  1  0
 11 12  1  0
 12 13  2  0
 13 14  1  0
 14 15  2  0
 15 16  1  0
 16 17  2  0
 17  2  1  0
 10  5  1  0
 17 12  1  0
M  END
>  <assay_chembl_id>  (270) 
CHEMBL1052490

>  <assay_description>  (270) 
Antagonist activity at androgen receptor in human MDA-kb2 cells assessed as inhibition of DHT-induced luciferase activity by luciferase reporter gene assay

>  <parent_molecule_chembl_id>  (270) 
CHEMBL274318

>  <canonical_smiles>  (270) 
O=C1CC(c2ccccc2)Oc2ccccc21

>  <standard_type>  (270) 
IC50

>  <standard_relation>  (270) 
=

>  <standard_value>  (270) 
20000.0

>  <standard_units>  (270) 
nM

>  <target_pref_name>  (270) 
Androgen Receptor

>  <target_chembl_id>  (270) 
CHEMBL1871

>  <target_organism>  (270) 
Homo sapiens

>  <pchembl_median>  (270) 
7.525

$$$$
CHEMBL150
     RDKit          2D

 21 23  0  0  0  0  0  0  0  0999 V2000
   -3.0000   -2.5981    0.0000 O   0  0  0  0  0  0  0  0  0  0  0  0
   -1.5000   -2.5981    0.0000 C   0  0  0  0  0  0  0  0  0  0  0  0
   -0.7500   -3.8971    0.0000 C   0  0  0  0  0  0  0  0  0  0  0  0
   -1.5000   -5.1962    0.0000 O   0  0  0  0  0  0  0  0  0  0  0  0
    0.7500   -3.8971    0.0000 C   0  0  0  0  0  0  0  0  0  0  0  0
    1.5000   -5.1962    0.0000 C   0  0  0  0  0  0  0  0  0  0  0  0
    0.7500   -6.4952    0.0000 C   0  0  0  0  0  0  0  0  0  0  0  0
    1.5000   -7.7942    0.0000 C   0  0  0  0  0  0  0  0  0  0  0  0
    3.0000   -7.7942    0.0000 C   0  0  0  0  0  0  0  0  0  0  0  0
    3.7500   -9.0933    0.0000 O   0  0  0  0  0  0  0  0  0  0  0  0
    3.7500   -6.4952    0.0000 C   0  0  0  0  0  0  0  0  0  0  0  0
    3.0000   -5.1962    0.0000 C   0  0  0  0  0  0  0  0  0  0  0  0
    1.5000   -2.5981    0.0000 O   0  0  0  0  0  0  0  0  0  0  0  0
    0.7500   -1.2990    0.0000 C   0  0  0  0  0  0  0  0  0  0  0  0
    1.5000    0.0000    0.0000 C   0  0  0  0  0  0  0  0  0  0  0  0
    0.7500    1.2990    0.0000 C   0  0  0  0  0  0  0  0  0  0  0  0
    1.5000    2.5981    0.0000 O   0  0  0  0  0  0  0  0  0  0  0  0
   -0.7500    1.2990    0.0000 C   0  0  0  0  0  0  0  0  0  0  0  0
   -1.5000    0.0000    0.0000 C   0  0  0  0  0  0  0  0  0  0  0  0
   -3.0000    0.0000    0.0000 O   0  0  0  0  0  0  0  0  0  0  0  0
   -0.7500   -1.2990    0.0000 C   0  0  0  0  0  0  0  0  0  0  0  0
  1  2  2  0
  2  3  1  0
  3  4  1  0
  3  5  2  0
  5  6  1  0
  6  7  2  0
  7  8  1  0
  8  9  2  0
  9 10  1  0
  9 11  1  0
 11 12  2  0
  5 13  1  0
 13 14  1  0
 14 15  2  0
 15 16  1  0
 16 17  1  0
 16 18  2  0
 18 19  1  0
 19 20  1  0
 19 21  2  0
 21  2  1  0
 12  6  1  0
 21 14  1  0
M  END
>  <assay_chembl_id>  (271) 
CHEMBL1052490

>  <assay_description>  (271) 
Antagonist activity at androgen receptor in human MDA-kb2 cells assessed as inhibition of DHT-induced luciferase activity by luciferase reporter gene assay

>  <parent_molecule_chembl_id>  (271) 
CHEMBL150

>  <canonical_smiles>  (271) 
O=c1c(O)c(-c2ccc(O)cc2)oc2cc(O)cc(O)c12

>  <standard_type>  (271) 
IC50

>  <standard_relation>  (271) 
=

>  <standard_value>  (271) 
9700.0

>  <standard_units>  (271) 
nM

>  <target_pref_name>  (271) 
Androgen Receptor

>  <target_chembl_id>  (271) 
CHEMBL1871

>  <target_organism>  (271) 
Homo sapiens

>  <pchembl_median>  (271) 
6.675

$$$$
CHEMBL28
     RDKit          2D

 20 22  0  0  0  0  0  0  0  0999 V2000
    3.0000    0.0000    0.0000 O   0  0  0  0  0  0  0  0  0  0  0  0
    1.5000    0.0000    0.0000 C   0  0  0  0  0  0  0  0  0  0  0  0
    0.7500   -1.2990    0.0000 C   0  0  0  0  0  0  0  0  0  0  0  0
   -0.7500   -1.2990    0.0000 C   0  0  0  0  0  0  0  0  0  0  0  0
   -1.5000   -2.5981    0.0000 C   0  0  0  0  0  0  0  0  0  0  0  0
   -3.0000   -2.5981    0.0000 C   0  0  0  0  0  0  0  0  0  0  0  0
   -3.7500   -3.8971    0.0000 C   0  0  0  0  0  0  0  0  0  0  0  0
   -3.0000   -5.1962    0.0000 C   0  0  0  0  0  0  0  0  0  0  0  0
   -3.7500   -6.4952    0.0000 O   0  0  0  0  0  0  0  0  0  0  0  0
   -1.5000   -5.1962    0.0000 C   0  0  0  0  0  0  0  0  0  0  0  0
   -0.7500   -3.8971    0.0000 C   0  0  0  0  0  0  0  0  0  0  0  0
   -1.5000    0.0000    0.0000 O   0  0  0  0  0  0  0  0  0  0  0  0
   -0.7500    1.2990    0.0000 C   0  0  0  0  0  0  0  0  0  0  0  0
   -1.5000    2.5981    0.0000 C   0  0  0  0  0  0  0  0  0  0  0  0
   -0.7500    3.8971    0.0000 C   0  0  0  0  0  0  0  0  0  0  0  0
   -1.5000    5.1962    0.0000 O   0  0  0  0  0  0  0  0  0  0  0  0
    0.7500    3.8971    0.0000 C   0  0  0  0  0  0  0  0  0  0  0  0
    1.5000    2.5981    0.0000 C   0  0  0  0  0  0  0  0  0  0  0  0
    3.0000    2.5981    0.0000 O   0  0  0  0  0  0  0  0  0  0  0  0
    0.7500    1.2990    0.0000 C   0  0  0  0  0  0  0  0  0  0  0  0
  1  2  2  0
  2  3  1  0
  3  4  2  0
  4  5  1  0
  5  6  2  0
  6  7  1  0
  7  8  2  0
  8  9  1  0
  8 10  1  0
 10 11  2  0
  4 12  1  0
 12 13  1  0
 13 14  2  0
 14 15  1  0
 15 16  1  0
 15 17  2  0
 17 18  1  0
 18 19  1  0
 18 20  2  0
 20  2  1  0
 11  5  1  0
 20 13  1  0
M  END
>  <assay_chembl_id>  (272) 
CHEMBL1052490

>  <assay_description>  (272) 
Antagonist activity at androgen receptor in human MDA-kb2 cells assessed as inhibition of DHT-induced luciferase activity by luciferase reporter gene assay

>  <parent_molecule_chembl_id>  (272) 
CHEMBL28

>  <canonical_smiles>  (272) 
O=c1cc(-c2ccc(O)cc2)oc2cc(O)cc(O)c12

>  <standard_type>  (272) 
IC50

>  <standard_relation>  (272) 
=

>  <standard_value>  (272) 
5200.0

>  <standard_units>  (272) 
nM

>  <target_pref_name>  (272) 
Androgen Receptor

>  <target_chembl_id>  (272) 
CHEMBL1871

>  <target_organism>  (272) 
Homo sapiens

>  <pchembl_median>  (272) 
7.11

$$$$
CHEMBL16685
     RDKit          2D

 19 21  0  0  0  0  0  0  0  0999 V2000
    3.7500   -1.2990    0.0000 C   0  0  0  0  0  0  0  0  0  0  0  0
    3.0000    0.0000    0.0000 O   0  0  0  0  0  0  0  0  0  0  0  0
    1.5000    0.0000    0.0000 C   0  0  0  0  0  0  0  0  0  0  0  0
    0.7500   -1.2990    0.0000 C   0  0  0  0  0  0  0  0  0  0  0  0
   -0.7500   -1.2990    0.0000 C   0  0  0  0  0  0  0  0  0  0  0  0
   -1.5000    0.0000    0.0000 C   0  0  0  0  0  0  0  0  0  0  0  0
   -0.7500    1.2990    0.0000 C   0  0  0  0  0  0  0  0  0  0  0  0
   -1.5000    2.5981    0.0000 O   0  0  0  0  0  0  0  0  0  0  0  0
   -0.7500    3.8971    0.0000 C   0  0  0  0  0  0  0  0  0  0  0  0
   -1.5000    5.1962    0.0000 C   0  0  0  0  0  0  0  0  0  0  0  0
   -0.7500    6.4952    0.0000 C   0  0  0  0  0  0  0  0  0  0  0  0
   -1.5000    7.7942    0.0000 C   0  0  0  0  0  0  0  0  0  0  0  0
   -3.0000    7.7942    0.0000 C   0  0  0  0  0  0  0  0  0  0  0  0
   -3.7500    6.4952    0.0000 C   0  0  0  0  0  0  0  0  0  0  0  0
   -3.0000    5.1962    0.0000 C   0  0  0  0  0  0  0  0  0  0  0  0
    0.7500    3.8971    0.0000 C   0  0  0  0  0  0  0  0  0  0  0  0
    1.5000    2.5981    0.0000 C   0  0  0  0  0  0  0  0  0  0  0  0
    3.0000    2.5981    0.0000 O   0  0  0  0  0  0  0  0  0  0  0  0
    0.7500    1.2990    0.0000 C   0  0  0  0  0  0  0  0  0  0  0  0
  1  2  1  0
  2  3  1  0
  3  4  2  0
  4  5  1  0
  5  6  2  0
  6  7  1  0
  7  8  1  0
  8  9  1  0
  9 10  1  0
 10 11  2  0
 11 12  1  0
 12 13  2  0
 13 14  1  0
 14 15  2  0
  9 16  2  0
 16 17  1  0
 17 18  2  0
 17 19  1  0
 19  3  1  0
 19  7  2  0
 15 10  1  0
M  END
>  <assay_chembl_id>  (273) 
CHEMBL1052490

>  <assay_description>  (273) 
Antagonist activity at androgen receptor in human MDA-kb2 cells assessed as inhibition of DHT-induced luciferase activity by luciferase reporter gene assay

>  <parent_molecule_chembl_id>  (273) 
CHEMBL16685

>  <canonical_smiles>  (273) 
COc1cccc2oc(-c3ccccc3)cc(=O)c12

>  <standard_type>  (273) 
IC50

>  <standard_relation>  (273) 
=

>  <standard_value>  (273) 
8700.0

>  <standard_units>  (273) 
nM

>  <target_pref_name>  (273) 
Androgen Receptor

>  <target_chembl_id>  (273) 
CHEMBL1871

>  <target_organism>  (273) 
Homo sapiens

>  <pchembl_median>  (273) 
5.31

$$$$
CHEMBL16807
     RDKit          2D

 18 20  0  0  0  0  0  0  0  0999 V2000
   -3.0000   -2.5981    0.0000 O   0  0  0  0  0  0  0  0  0  0  0  0
   -1.5000   -2.5981    0.0000 C   0  0  0  0  0  0  0  0  0  0  0  0
   -0.7500   -3.8971    0.0000 C   0  0  0  0  0  0  0  0  0  0  0  0
    0.7500   -3.8971    0.0000 C   0  0  0  0  0  0  0  0  0  0  0  0
    1.5000   -5.1962    0.0000 C   0  0  0  0  0  0  0  0  0  0  0  0
    0.7500   -6.4952    0.0000 C   0  0  0  0  0  0  0  0  0  0  0  0
    1.5000   -7.7942    0.0000 C   0  0  0  0  0  0  0  0  0  0  0  0
    3.0000   -7.7942    0.0000 C   0  0  0  0  0  0  0  0  0  0  0  0
    3.7500   -6.4952    0.0000 C   0  0  0  0  0  0  0  0  0  0  0  0
    3.0000   -5.1962    0.0000 C   0  0  0  0  0  0  0  0  0  0  0  0
    1.5000   -2.5981    0.0000 O   0  0  0  0  0  0  0  0  0  0  0  0
    0.7500   -1.2990    0.0000 C   0  0  0  0  0  0  0  0  0  0  0  0
    1.5000    0.0000    0.0000 C   0  0  0  0  0  0  0  0  0  0  0  0
    0.7500    1.2990    0.0000 C   0  0  0  0  0  0  0  0  0  0  0  0
   -0.7500    1.2990    0.0000 C   0  0  0  0  0  0  0  0  0  0  0  0
   -1.5000    0.0000    0.0000 C   0  0  0  0  0  0  0  0  0  0  0  0
   -3.0000    0.0000    0.0000 O   0  0  0  0  0  0  0  0  0  0  0  0
   -0.7500   -1.2990    0.0000 C   0  0  0  0  0  0  0  0  0  0  0  0
  1  2  2  0
  2  3  1  0
  3  4  2  0
  4  5  1  0
  5  6  2  0
  6  7  1  0
  7  8  2  0
  8  9  1  0
  9 10  2  0
  4 11  1  0
 11 12  1  0
 12 13  2  0
 13 14  1  0
 14 15  2  0
 15 16  1  0
 16 17  1  0
 16 18  2  0
 18  2  1  0
 10  5  1  0
 18 12  1  0
M  END
>  <assay_chembl_id>  (274) 
CHEMBL1052490

>  <assay_description>  (274) 
Antagonist activity at androgen receptor in human MDA-kb2 cells assessed as inhibition of DHT-induced luciferase activity by luciferase reporter gene assay

>  <parent_molecule_chembl_id>  (274) 
CHEMBL16807

>  <canonical_smiles>  (274) 
O=c1cc(-c2ccccc2)oc2cccc(O)c12

>  <standard_type>  (274) 
IC50

>  <standard_relation>  (274) 
=

>  <standard_value>  (274) 
300.0

>  <standard_units>  (274) 
nM

>  <target_pref_name>  (274) 
Androgen Receptor

>  <target_chembl_id>  (274) 
CHEMBL1871

>  <target_organism>  (274) 
Homo sapiens

>  <pchembl_median>  (274) 
8.15

$$$$
CHEMBL294009
     RDKit          2D

 18 20  0  0  0  0  0  0  0  0999 V2000
   -3.0000   -2.5981    0.0000 O   0  0  0  0  0  0  0  0  0  0  0  0
   -1.5000   -2.5981    0.0000 C   0  0  0  0  0  0  0  0  0  0  0  0
   -0.7500   -3.8971    0.0000 C   0  0  0  0  0  0  0  0  0  0  0  0
   -1.5000   -5.1962    0.0000 O   0  0  0  0  0  0  0  0  0  0  0  0
    0.7500   -3.8971    0.0000 C   0  0  0  0  0  0  0  0  0  0  0  0
    1.5000   -5.1962    0.0000 C   0  0  0  0  0  0  0  0  0  0  0  0
    0.7500   -6.4952    0.0000 C   0  0  0  0  0  0  0  0  0  0  0  0
    1.5000   -7.7942    0.0000 C   0  0  0  0  0  0  0  0  0  0  0  0
    3.0000   -7.7942    0.0000 C   0  0  0  0  0  0  0  0  0  0  0  0
    3.7500   -6.4952    0.0000 C   0  0  0  0  0  0  0  0  0  0  0  0
    3.0000   -5.1962    0.0000 C   0  0  0  0  0  0  0  0  0  0  0  0
    1.5000   -2.5981    0.0000 O   0  0  0  0  0  0  0  0  0  0  0  0
    0.7500   -1.2990    0.0000 C   0  0  0  0  0  0  0  0  0  0  0  0
    1.5000    0.0000    0.0000 C   0  0  0  0  0  0  0  0  0  0  0  0
    0.7500    1.2990    0.0000 C   0  0  0  0  0  0  0  0  0  0  0  0
   -0.7500    1.2990    0.0000 C   0  0  0  0  0  0  0  0  0  0  0  0
   -1.5000    0.0000    0.0000 C   0  0  0  0  0  0  0  0  0  0  0  0
   -0.7500   -1.2990    0.0000 C   0  0  0  0  0  0  0  0  0  0  0  0
  1  2  2  0
  2  3  1  0
  3  4  1  0
  3  5  2  0
  5  6  1  0
  6  7  2  0
  7  8  1  0
  8  9  2  0
  9 10  1  0
 10 11  2  0
  5 12  1  0
 12 13  1  0
 13 14  2  0
 14 15  1  0
 15 16  2  0
 16 17  1  0
 17 18  2  0
 18  2  1  0
 11  6  1  0
 18 13  1  0
M  END
>  <assay_chembl_id>  (275) 
CHEMBL1052490

>  <assay_description>  (275) 
Antagonist activity at androgen receptor in human MDA-kb2 cells assessed as inhibition of DHT-induced luciferase activity by luciferase reporter gene assay

>  <parent_molecule_chembl_id>  (275) 
CHEMBL294009

>  <canonical_smiles>  (275) 
O=c1c(O)c(-c2ccccc2)oc2ccccc12

>  <standard_type>  (275) 
IC50

>  <standard_relation>  (275) 
=

>  <standard_value>  (275) 
23500.0

>  <standard_units>  (275) 
nM

>  <target_pref_name>  (275) 
Androgen Receptor

>  <target_chembl_id>  (275) 
CHEMBL1871

>  <target_organism>  (275) 
Homo sapiens

>  <pchembl_median>  (275) 
8.42

$$$$
CHEMBL275638
     RDKit          2D

 17 19  0  0  0  0  0  0  0  0999 V2000
   -3.0000   -2.5981    0.0000 O   0  0  0  0  0  0  0  0  0  0  0  0
   -1.5000   -2.5981    0.0000 C   0  0  0  0  0  0  0  0  0  0  0  0
   -0.7500   -3.8971    0.0000 C   0  0  0  0  0  0  0  0  0  0  0  0
    0.7500   -3.8971    0.0000 C   0  0  0  0  0  0  0  0  0  0  0  0
    1.5000   -5.1962    0.0000 C   0  0  0  0  0  0  0  0  0  0  0  0
    0.7500   -6.4952    0.0000 C   0  0  0  0  0  0  0  0  0  0  0  0
    1.5000   -7.7942    0.0000 C   0  0  0  0  0  0  0  0  0  0  0  0
    3.0000   -7.7942    0.0000 C   0  0  0  0  0  0  0  0  0  0  0  0
    3.7500   -6.4952    0.0000 C   0  0  0  0  0  0  0  0  0  0  0  0
    3.0000   -5.1962    0.0000 C   0  0  0  0  0  0  0  0  0  0  0  0
    1.5000   -2.5981    0.0000 O   0  0  0  0  0  0  0  0  0  0  0  0
    0.7500   -1.2990    0.0000 C   0  0  0  0  0  0  0  0  0  0  0  0
    1.5000    0.0000    0.0000 C   0  0  0  0  0  0  0  0  0  0  0  0
    0.7500    1.2990    0.0000 C   0  0  0  0  0  0  0  0  0  0  0  0
   -0.7500    1.2990    0.0000 C   0  0  0  0  0  0  0  0  0  0  0  0
   -1.5000    0.0000    0.0000 C   0  0  0  0  0  0  0  0  0  0  0  0
   -0.7500   -1.2990    0.0000 C   0  0  0  0  0  0  0  0  0  0  0  0
  1  2  2  0
  2  3  1  0
  3  4  2  0
  4  5  1  0
  5  6  2  0
  6  7  1  0
  7  8  2  0
  8  9  1  0
  9 10  2  0
  4 11  1  0
 11 12  1  0
 12 13  2  0
 13 14  1  0
 14 15  2  0
 15 16  1  0
 16 17  2  0
 17  2  1  0
 10  5  1  0
 17 12  1  0
M  END
>  <assay_chembl_id>  (276) 
CHEMBL1052490

>  <assay_description>  (276) 
Antagonist activity at androgen receptor in human MDA-kb2 cells assessed as inhibition of DHT-induced luciferase activity by luciferase reporter gene assay

>  <parent_molecule_chembl_id>  (276) 
CHEMBL275638

>  <canonical_smiles>  (276) 
O=c1cc(-c2ccccc2)oc2ccccc12

>  <standard_type>  (276) 
IC50

>  <standard_relation>  (276) 
=

>  <standard_value>  (276) 
5900.0

>  <standard_units>  (276) 
nM

>  <target_pref_name>  (276) 
Androgen Receptor

>  <target_chembl_id>  (276) 
CHEMBL1871

>  <target_organism>  (276) 
Homo sapiens

>  <pchembl_median>  (276) 
7.005

$$$$
CHEMBL1099140
     RDKit          2D

 22 23  0  0  0  0  0  0  0  0999 V2000
    4.6740   -4.8322    0.0000 C   0  0  0  0  0  0  0  0  0  0  0  0
    3.3037   -4.2221    0.0000 N   0  0  0  0  0  0  0  0  0  0  0  0
    2.9918   -2.7549    0.0000 C   0  0  0  0  0  0  0  0  0  0  0  0
    3.9955   -1.6402    0.0000 S   0  0  0  0  0  0  0  0  0  0  0  0
    1.5000   -2.5981    0.0000 N   0  0  0  0  0  0  0  0  0  0  0  0
    0.7500   -1.2990    0.0000 C   0  0  0  0  0  0  0  0  0  0  0  0
    1.5000    0.0000    0.0000 C   0  0  0  0  0  0  0  0  0  0  0  0
    0.7500    1.2990    0.0000 C   0  0  0  0  0  0  0  0  0  0  0  0
   -0.7500    1.2990    0.0000 C   0  0  0  0  0  0  0  0  0  0  0  0
   -1.5000    2.5981    0.0000 C   0  0  0  0  0  0  0  0  0  0  0  0
   -2.2500    3.8971    0.0000 N   0  0  0  0  0  0  0  0  0  0  0  0
   -1.5000    0.0000    0.0000 C   0  0  0  0  0  0  0  0  0  0  0  0
   -3.0000    0.0000    0.0000 C   0  0  0  0  0  0  0  0  0  0  0  0
   -4.5000    0.0000    0.0000 F   0  0  0  0  0  0  0  0  0  0  0  0
   -3.0000   -1.5000    0.0000 F   0  0  0  0  0  0  0  0  0  0  0  0
   -3.0000    1.5000    0.0000 F   0  0  0  0  0  0  0  0  0  0  0  0
   -0.7500   -1.2990    0.0000 C   0  0  0  0  0  0  0  0  0  0  0  0
    0.8899   -3.9684    0.0000 C   0  0  0  0  0  0  0  0  0  0  0  0
   -0.5773   -4.2803    0.0000 O   0  0  0  0  0  0  0  0  0  0  0  0
    2.0046   -4.9721    0.0000 C   0  0  0  0  0  0  0  0  0  0  0  0
    2.8863   -6.1856    0.0000 C   0  0  0  0  0  0  0  0  0  0  0  0
    0.8899   -5.9758    0.0000 C   0  0  0  0  0  0  0  0  0  0  0  0
  1  2  1  0
  2  3  1  0
  3  4  2  0
  3  5  1  0
  5  6  1  0
  6  7  2  0
  7  8  1  0
  8  9  2  0
  9 10  1  0
 10 11  3  0
  9 12  1  0
 12 13  1  0
 13 14  1  0
 13 15  1  0
 13 16  1  0
 12 17  2  0
  5 18  1  0
 18 19  2  0
 18 20  1  0
 20 21  1  0
 20 22  1  0
 20  2  1  0
 17  6  1  0
M  END
>  <assay_chembl_id>  (277) 
CHEMBL1121343

>  <assay_description>  (277) 
Displacement of [3H]mibolerone from human AR expressed in CHO-K1 cells after 2 hrs by scintillation counting

>  <parent_molecule_chembl_id>  (277) 
CHEMBL1099140

>  <canonical_smiles>  (277) 
CN1C(=S)N(c2ccc(C#N)c(C(F)(F)F)c2)C(=O)C1(C)C

>  <standard_type>  (277) 
IC50

>  <standard_relation>  (277) 
=

>  <standard_value>  (277) 
15.0

>  <standard_units>  (277) 
nM

>  <target_pref_name>  (277) 
Androgen Receptor

>  <target_chembl_id>  (277) 
CHEMBL1871

>  <target_organism>  (277) 
Homo sapiens

>  <pchembl_median>  (277) 
6.95

$$$$
CHEMBL1099141
     RDKit          2D

 27 28  0  0  0  0  0  0  0  0999 V2000
    4.7302   -3.7586    0.0000 C   0  0  0  0  0  0  0  0  0  0  0  0
    3.3037   -4.2221    0.0000 C   0  0  0  0  0  0  0  0  0  0  0  0
    3.9138   -5.5924    0.0000 C   0  0  0  0  0  0  0  0  0  0  0  0
    2.9918   -2.7549    0.0000 C   0  0  0  0  0  0  0  0  0  0  0  0
    3.9955   -1.6402    0.0000 O   0  0  0  0  0  0  0  0  0  0  0  0
    1.5000   -2.5981    0.0000 N   0  0  0  0  0  0  0  0  0  0  0  0
    0.7500   -1.2990    0.0000 C   0  0  0  0  0  0  0  0  0  0  0  0
    1.5000    0.0000    0.0000 C   0  0  0  0  0  0  0  0  0  0  0  0
    0.7500    1.2990    0.0000 C   0  0  0  0  0  0  0  0  0  0  0  0
   -0.7500    1.2990    0.0000 C   0  0  0  0  0  0  0  0  0  0  0  0
   -1.5000    2.5981    0.0000 C   0  0  0  0  0  0  0  0  0  0  0  0
   -2.2500    3.8971    0.0000 N   0  0  0  0  0  0  0  0  0  0  0  0
   -1.5000    0.0000    0.0000 C   0  0  0  0  0  0  0  0  0  0  0  0
   -3.0000    0.0000    0.0000 C   0  0  0  0  0  0  0  0  0  0  0  0
   -4.5000    0.0000    0.0000 F   0  0  0  0  0  0  0  0  0  0  0  0
   -3.0000   -1.5000    0.0000 F   0  0  0  0  0  0  0  0  0  0  0  0
   -3.0000    1.5000    0.0000 F   0  0  0  0  0  0  0  0  0  0  0  0
   -0.7500   -1.2990    0.0000 C   0  0  0  0  0  0  0  0  0  0  0  0
    0.8899   -3.9684    0.0000 C   0  0  0  0  0  0  0  0  0  0  0  0
   -0.5773   -4.2803    0.0000 S   0  0  0  0  0  0  0  0  0  0  0  0
    2.0046   -4.9721    0.0000 N   0  0  0  0  0  0  0  0  0  0  0  0
    1.8478   -6.4639    0.0000 C   0  0  0  0  0  0  0  0  0  0  0  0
    0.4775   -7.0740    0.0000 C   0  0  0  0  0  0  0  0  0  0  0  0
    0.3207   -8.5658    0.0000 C   0  0  0  0  0  0  0  0  0  0  0  0
   -1.0496   -9.1759    0.0000 C   0  0  0  0  0  0  0  0  0  0  0  0
   -2.2631   -8.2942    0.0000 O   0  0  0  0  0  0  0  0  0  0  0  0
   -1.2064  -10.6676    0.0000 O   0  0  0  0  0  0  0  0  0  0  0  0
  1  2  1  0
  2  3  1  0
  2  4  1  0
  4  5  2  0
  4  6  1  0
  6  7  1  0
  7  8  2  0
  8  9  1  0
  9 10  2  0
 10 11  1  0
 11 12  3  0
 10 13  1  0
 13 14  1  0
 14 15  1  0
 14 16  1  0
 14 17  1  0
 13 18  2  0
  6 19  1  0
 19 20  2  0
 19 21  1  0
 21 22  1  0
 22 23  1  0
 23 24  1  0
 24 25  1  0
 25 26  2  0
 25 27  1  0
 21  2  1  0
 18  7  1  0
M  END
>  <assay_chembl_id>  (278) 
CHEMBL1121343

>  <assay_description>  (278) 
Displacement of [3H]mibolerone from human AR expressed in CHO-K1 cells after 2 hrs by scintillation counting

>  <parent_molecule_chembl_id>  (278) 
CHEMBL1099141

>  <canonical_smiles>  (278) 
CC1(C)C(=O)N(c2ccc(C#N)c(C(F)(F)F)c2)C(=S)N1CCCC(=O)O

>  <standard_type>  (278) 
IC50

>  <standard_relation>  (278) 
=

>  <standard_value>  (278) 
3900.0

>  <standard_units>  (278) 
nM

>  <target_pref_name>  (278) 
Androgen Receptor

>  <target_chembl_id>  (278) 
CHEMBL1871

>  <target_organism>  (278) 
Homo sapiens

>  <pchembl_median>  (278) 
7.89

$$$$
CHEMBL1099142
     RDKit          2D

 27 28  0  0  0  0  0  0  0  0999 V2000
    4.7302   -3.7586    0.0000 C   0  0  0  0  0  0  0  0  0  0  0  0
    3.3037   -4.2221    0.0000 C   0  0  0  0  0  0  0  0  0  0  0  0
    3.9138   -5.5924    0.0000 C   0  0  0  0  0  0  0  0  0  0  0  0
    2.9918   -2.7549    0.0000 C   0  0  0  0  0  0  0  0  0  0  0  0
    3.9955   -1.6402    0.0000 O   0  0  0  0  0  0  0  0  0  0  0  0
    1.5000   -2.5981    0.0000 N   0  0  0  0  0  0  0  0  0  0  0  0
    0.7500   -1.2990    0.0000 C   0  0  0  0  0  0  0  0  0  0  0  0
    1.5000    0.0000    0.0000 C   0  0  0  0  0  0  0  0  0  0  0  0
    0.7500    1.2990    0.0000 C   0  0  0  0  0  0  0  0  0  0  0  0
   -0.7500    1.2990    0.0000 C   0  0  0  0  0  0  0  0  0  0  0  0
   -1.5000    2.5981    0.0000 C   0  0  0  0  0  0  0  0  0  0  0  0
   -2.2500    3.8971    0.0000 N   0  0  0  0  0  0  0  0  0  0  0  0
   -1.5000    0.0000    0.0000 C   0  0  0  0  0  0  0  0  0  0  0  0
   -3.0000    0.0000    0.0000 C   0  0  0  0  0  0  0  0  0  0  0  0
   -4.5000    0.0000    0.0000 F   0  0  0  0  0  0  0  0  0  0  0  0
   -3.0000   -1.5000    0.0000 F   0  0  0  0  0  0  0  0  0  0  0  0
   -3.0000    1.5000    0.0000 F   0  0  0  0  0  0  0  0  0  0  0  0
   -0.7500   -1.2990    0.0000 C   0  0  0  0  0  0  0  0  0  0  0  0
    0.8899   -3.9684    0.0000 C   0  0  0  0  0  0  0  0  0  0  0  0
   -0.5773   -4.2803    0.0000 S   0  0  0  0  0  0  0  0  0  0  0  0
    2.0046   -4.9721    0.0000 N   0  0  0  0  0  0  0  0  0  0  0  0
    1.8478   -6.4639    0.0000 C   0  0  0  0  0  0  0  0  0  0  0  0
    0.4775   -7.0740    0.0000 C   0  0  0  0  0  0  0  0  0  0  0  0
    0.3207   -8.5658    0.0000 C   0  0  0  0  0  0  0  0  0  0  0  0
   -1.0496   -9.1759    0.0000 C   0  0  0  0  0  0  0  0  0  0  0  0
   -1.2064  -10.6676    0.0000 N   0  0  0  0  0  0  0  0  0  0  0  0
   -2.2631   -8.2942    0.0000 O   0  0  0  0  0  0  0  0  0  0  0  0
  1  2  1  0
  2  3  1  0
  2  4  1  0
  4  5  2  0
  4  6  1  0
  6  7  1  0
  7  8  2  0
  8  9  1  0
  9 10  2  0
 10 11  1  0
 11 12  3  0
 10 13  1  0
 13 14  1  0
 14 15  1  0
 14 16  1  0
 14 17  1  0
 13 18  2  0
  6 19  1  0
 19 20  2  0
 19 21  1  0
 21 22  1  0
 22 23  1  0
 23 24  1  0
 24 25  1  0
 25 26  1  0
 25 27  2  0
 21  2  1  0
 18  7  1  0
M  END
>  <assay_chembl_id>  (279) 
CHEMBL1121343

>  <assay_description>  (279) 
Displacement of [3H]mibolerone from human AR expressed in CHO-K1 cells after 2 hrs by scintillation counting

>  <parent_molecule_chembl_id>  (279) 
CHEMBL1099142

>  <canonical_smiles>  (279) 
CC1(C)C(=O)N(c2ccc(C#N)c(C(F)(F)F)c2)C(=S)N1CCCC(N)=O

>  <standard_type>  (279) 
IC50

>  <standard_relation>  (279) 
=

>  <standard_value>  (279) 
480.0

>  <standard_units>  (279) 
nM

>  <target_pref_name>  (279) 
Androgen Receptor

>  <target_chembl_id>  (279) 
CHEMBL1871

>  <target_organism>  (279) 
Homo sapiens

>  <pchembl_median>  (279) 
8.96

$$$$
CHEMBL1095223
     RDKit          2D

 28 29  0  0  0  0  0  0  0  0999 V2000
    4.7302   -3.7586    0.0000 C   0  0  0  0  0  0  0  0  0  0  0  0
    3.3037   -4.2221    0.0000 C   0  0  0  0  0  0  0  0  0  0  0  0
    3.9138   -5.5924    0.0000 C   0  0  0  0  0  0  0  0  0  0  0  0
    2.9918   -2.7549    0.0000 C   0  0  0  0  0  0  0  0  0  0  0  0
    3.9955   -1.6402    0.0000 O   0  0  0  0  0  0  0  0  0  0  0  0
    1.5000   -2.5981    0.0000 N   0  0  0  0  0  0  0  0  0  0  0  0
    0.7500   -1.2990    0.0000 C   0  0  0  0  0  0  0  0  0  0  0  0
    1.5000    0.0000    0.0000 C   0  0  0  0  0  0  0  0  0  0  0  0
    0.7500    1.2990    0.0000 C   0  0  0  0  0  0  0  0  0  0  0  0
   -0.7500    1.2990    0.0000 C   0  0  0  0  0  0  0  0  0  0  0  0
   -1.5000    2.5981    0.0000 C   0  0  0  0  0  0  0  0  0  0  0  0
   -2.2500    3.8971    0.0000 N   0  0  0  0  0  0  0  0  0  0  0  0
   -1.5000    0.0000    0.0000 C   0  0  0  0  0  0  0  0  0  0  0  0
   -3.0000    0.0000    0.0000 C   0  0  0  0  0  0  0  0  0  0  0  0
   -4.5000    0.0000    0.0000 F   0  0  0  0  0  0  0  0  0  0  0  0
   -3.0000   -1.5000    0.0000 F   0  0  0  0  0  0  0  0  0  0  0  0
   -3.0000    1.5000    0.0000 F   0  0  0  0  0  0  0  0  0  0  0  0
   -0.7500   -1.2990    0.0000 C   0  0  0  0  0  0  0  0  0  0  0  0
    0.8899   -3.9684    0.0000 C   0  0  0  0  0  0  0  0  0  0  0  0
   -0.5773   -4.2803    0.0000 S   0  0  0  0  0  0  0  0  0  0  0  0
    2.0046   -4.9721    0.0000 N   0  0  0  0  0  0  0  0  0  0  0  0
    1.8478   -6.4639    0.0000 C   0  0  0  0  0  0  0  0  0  0  0  0
    0.4775   -7.0740    0.0000 C   0  0  0  0  0  0  0  0  0  0  0  0
    0.3207   -8.5658    0.0000 C   0  0  0  0  0  0  0  0  0  0  0  0
   -1.0496   -9.1759    0.0000 N   0  0  0  0  0  0  0  0  0  0  0  0
   -1.2064  -10.6676    0.0000 C   0  0  0  0  0  0  0  0  0  0  0  0
   -2.5767  -11.2778    0.0000 N   0  0  0  0  0  0  0  0  0  0  0  0
    0.0071  -11.5493    0.0000 O   0  0  0  0  0  0  0  0  0  0  0  0
  1  2  1  0
  2  3  1  0
  2  4  1  0
  4  5  2  0
  4  6  1  0
  6  7  1  0
  7  8  2  0
  8  9  1  0
  9 10  2  0
 10 11  1  0
 11 12  3  0
 10 13  1  0
 13 14  1  0
 14 15  1  0
 14 16  1  0
 14 17  1  0
 13 18  2  0
  6 19  1  0
 19 20  2  0
 19 21  1  0
 21 22  1  0
 22 23  1  0
 23 24  1  0
 24 25  1  0
 25 26  1  0
 26 27  1  0
 26 28  2  0
 21  2  1  0
 18  7  1  0
M  END
>  <assay_chembl_id>  (280) 
CHEMBL1121343

>  <assay_description>  (280) 
Displacement of [3H]mibolerone from human AR expressed in CHO-K1 cells after 2 hrs by scintillation counting

>  <parent_molecule_chembl_id>  (280) 
CHEMBL1095223

>  <canonical_smiles>  (280) 
CC1(C)C(=O)N(c2ccc(C#N)c(C(F)(F)F)c2)C(=S)N1CCCNC(N)=O

>  <standard_type>  (280) 
IC50

>  <standard_relation>  (280) 
=

>  <standard_value>  (280) 
800.0

>  <standard_units>  (280) 
nM

>  <target_pref_name>  (280) 
Androgen Receptor

>  <target_chembl_id>  (280) 
CHEMBL1871

>  <target_organism>  (280) 
Homo sapiens

>  <pchembl_median>  (280) 
7.21

$$$$
CHEMBL1095862
     RDKit          2D

 28 29  0  0  0  0  0  0  0  0999 V2000
    4.7302   -3.7586    0.0000 C   0  0  0  0  0  0  0  0  0  0  0  0
    3.3037   -4.2221    0.0000 C   0  0  0  0  0  0  0  0  0  0  0  0
    3.9138   -5.5924    0.0000 C   0  0  0  0  0  0  0  0  0  0  0  0
    2.9918   -2.7549    0.0000 C   0  0  0  0  0  0  0  0  0  0  0  0
    3.9955   -1.6402    0.0000 O   0  0  0  0  0  0  0  0  0  0  0  0
    1.5000   -2.5981    0.0000 N   0  0  0  0  0  0  0  0  0  0  0  0
    0.7500   -1.2990    0.0000 C   0  0  0  0  0  0  0  0  0  0  0  0
    1.5000    0.0000    0.0000 C   0  0  0  0  0  0  0  0  0  0  0  0
    0.7500    1.2990    0.0000 C   0  0  0  0  0  0  0  0  0  0  0  0
   -0.7500    1.2990    0.0000 C   0  0  0  0  0  0  0  0  0  0  0  0
   -1.5000    2.5981    0.0000 C   0  0  0  0  0  0  0  0  0  0  0  0
   -2.2500    3.8971    0.0000 N   0  0  0  0  0  0  0  0  0  0  0  0
   -1.5000    0.0000    0.0000 C   0  0  0  0  0  0  0  0  0  0  0  0
   -3.0000    0.0000    0.0000 C   0  0  0  0  0  0  0  0  0  0  0  0
   -4.5000    0.0000    0.0000 F   0  0  0  0  0  0  0  0  0  0  0  0
   -3.0000   -1.5000    0.0000 F   0  0  0  0  0  0  0  0  0  0  0  0
   -3.0000    1.5000    0.0000 F   0  0  0  0  0  0  0  0  0  0  0  0
   -0.7500   -1.2990    0.0000 C   0  0  0  0  0  0  0  0  0  0  0  0
    0.8899   -3.9684    0.0000 C   0  0  0  0  0  0  0  0  0  0  0  0
   -0.5773   -4.2803    0.0000 S   0  0  0  0  0  0  0  0  0  0  0  0
    2.0046   -4.9721    0.0000 N   0  0  0  0  0  0  0  0  0  0  0  0
    1.8478   -6.4639    0.0000 C   0  0  0  0  0  0  0  0  0  0  0  0
    0.4775   -7.0740    0.0000 C   0  0  0  0  0  0  0  0  0  0  0  0
    0.3207   -8.5658    0.0000 C   0  0  0  0  0  0  0  0  0  0  0  0
   -1.0496   -9.1759    0.0000 S   0  0  0  0  0  0  0  0  0  0  0  0
   -2.4199   -9.7860    0.0000 N   0  0  0  0  0  0  0  0  0  0  0  0
   -0.4395  -10.5462    0.0000 O   0  0  0  0  0  0  0  0  0  0  0  0
   -1.6597   -7.8055    0.0000 O   0  0  0  0  0  0  0  0  0  0  0  0
  1  2  1  0
  2  3  1  0
  2  4  1  0
  4  5  2  0
  4  6  1  0
  6  7  1  0
  7  8  2  0
  8  9  1  0
  9 10  2  0
 10 11  1  0
 11 12  3  0
 10 13  1  0
 13 14  1  0
 14 15  1  0
 14 16  1  0
 14 17  1  0
 13 18  2  0
  6 19  1  0
 19 20  2  0
 19 21  1  0
 21 22  1  0
 22 23  1  0
 23 24  1  0
 24 25  1  0
 25 26  1  0
 25 27  2  0
 25 28  2  0
 21  2  1  0
 18  7  1  0
M  END
>  <assay_chembl_id>  (281) 
CHEMBL1121343

>  <assay_description>  (281) 
Displacement of [3H]mibolerone from human AR expressed in CHO-K1 cells after 2 hrs by scintillation counting

>  <parent_molecule_chembl_id>  (281) 
CHEMBL1095862

>  <canonical_smiles>  (281) 
CC1(C)C(=O)N(c2ccc(C#N)c(C(F)(F)F)c2)C(=S)N1CCCS(N)(=O)=O

>  <standard_type>  (281) 
IC50

>  <standard_relation>  (281) 
=

>  <standard_value>  (281) 
400.0

>  <standard_units>  (281) 
nM

>  <target_pref_name>  (281) 
Androgen Receptor

>  <target_chembl_id>  (281) 
CHEMBL1871

>  <target_organism>  (281) 
Homo sapiens

>  <pchembl_median>  (281) 
7.335

$$$$
CHEMBL1095863
     RDKit          2D

 29 30  0  0  0  0  0  0  0  0999 V2000
    5.3011  -10.7993    0.0000 C   0  0  0  0  0  0  0  0  0  0  0  0
    6.5147   -9.9176    0.0000 N   0  0  0  0  0  0  0  0  0  0  0  0
    6.3579   -8.4259    0.0000 S   0  0  0  0  0  0  0  0  0  0  0  0
    7.8497   -8.2691    0.0000 O   0  0  0  0  0  0  0  0  0  0  0  0
    4.8661   -8.5827    0.0000 O   0  0  0  0  0  0  0  0  0  0  0  0
    6.2011   -6.9341    0.0000 C   0  0  0  0  0  0  0  0  0  0  0  0
    4.8308   -6.3240    0.0000 C   0  0  0  0  0  0  0  0  0  0  0  0
    4.6740   -4.8322    0.0000 C   0  0  0  0  0  0  0  0  0  0  0  0
    3.3037   -4.2221    0.0000 N   0  0  0  0  0  0  0  0  0  0  0  0
    2.9918   -2.7549    0.0000 C   0  0  0  0  0  0  0  0  0  0  0  0
    3.9955   -1.6402    0.0000 S   0  0  0  0  0  0  0  0  0  0  0  0
    1.5000   -2.5981    0.0000 N   0  0  0  0  0  0  0  0  0  0  0  0
    0.7500   -1.2990    0.0000 C   0  0  0  0  0  0  0  0  0  0  0  0
    1.5000    0.0000    0.0000 C   0  0  0  0  0  0  0  0  0  0  0  0
    0.7500    1.2990    0.0000 C   0  0  0  0  0  0  0  0  0  0  0  0
   -0.7500    1.2990    0.0000 C   0  0  0  0  0  0  0  0  0  0  0  0
   -1.5000    2.5981    0.0000 C   0  0  0  0  0  0  0  0  0  0  0  0
   -2.2500    3.8971    0.0000 N   0  0  0  0  0  0  0  0  0  0  0  0
   -1.5000    0.0000    0.0000 C   0  0  0  0  0  0  0  0  0  0  0  0
   -3.0000    0.0000    0.0000 C   0  0  0  0  0  0  0  0  0  0  0  0
   -4.5000    0.0000    0.0000 F   0  0  0  0  0  0  0  0  0  0  0  0
   -3.0000   -1.5000    0.0000 F   0  0  0  0  0  0  0  0  0  0  0  0
   -3.0000    1.5000    0.0000 F   0  0  0  0  0  0  0  0  0  0  0  0
   -0.7500   -1.2990    0.0000 C   0  0  0  0  0  0  0  0  0  0  0  0
    0.8899   -3.9684    0.0000 C   0  0  0  0  0  0  0  0  0  0  0  0
   -0.5773   -4.2803    0.0000 O   0  0  0  0  0  0  0  0  0  0  0  0
    2.0046   -4.9721    0.0000 C   0  0  0  0  0  0  0  0  0  0  0  0
    2.8863   -6.1856    0.0000 C   0  0  0  0  0  0  0  0  0  0  0  0
    0.8899   -5.9758    0.0000 C   0  0  0  0  0  0  0  0  0  0  0  0
  1  2  1  0
  2  3  1  0
  3  4  2  0
  3  5  2  0
  3  6  1  0
  6  7  1  0
  7  8  1  0
  8  9  1  0
  9 10  1  0
 10 11  2  0
 10 12  1  0
 12 13  1  0
 13 14  2  0
 14 15  1  0
 15 16  2  0
 16 17  1  0
 17 18  3  0
 16 19  1  0
 19 20  1  0
 20 21  1  0
 20 22  1  0
 20 23  1  0
 19 24  2  0
 12 25  1  0
 25 26  2  0
 25 27  1  0
 27 28  1  0
 27 29  1  0
 27  9  1  0
 24 13  1  0
M  END
>  <assay_chembl_id>  (282) 
CHEMBL1121343

>  <assay_description>  (282) 
Displacement of [3H]mibolerone from human AR expressed in CHO-K1 cells after 2 hrs by scintillation counting

>  <parent_molecule_chembl_id>  (282) 
CHEMBL1095863

>  <canonical_smiles>  (282) 
CNS(=O)(=O)CCCN1C(=S)N(c2ccc(C#N)c(C(F)(F)F)c2)C(=O)C1(C)C

>  <standard_type>  (282) 
IC50

>  <standard_relation>  (282) 
=

>  <standard_value>  (282) 
170.0

>  <standard_units>  (282) 
nM

>  <target_pref_name>  (282) 
Androgen Receptor

>  <target_chembl_id>  (282) 
CHEMBL1871

>  <target_organism>  (282) 
Homo sapiens

>  <pchembl_median>  (282) 
6.7

$$$$
CHEMBL1097855
     RDKit          2D

 27 28  0  0  0  0  0  0  0  0999 V2000
    4.7302   -3.7586    0.0000 C   0  0  0  0  0  0  0  0  0  0  0  0
    3.3037   -4.2221    0.0000 C   0  0  0  0  0  0  0  0  0  0  0  0
    3.9138   -5.5924    0.0000 C   0  0  0  0  0  0  0  0  0  0  0  0
    2.9918   -2.7549    0.0000 C   0  0  0  0  0  0  0  0  0  0  0  0
    3.9955   -1.6402    0.0000 O   0  0  0  0  0  0  0  0  0  0  0  0
    1.5000   -2.5981    0.0000 N   0  0  0  0  0  0  0  0  0  0  0  0
    0.7500   -1.2990    0.0000 C   0  0  0  0  0  0  0  0  0  0  0  0
    1.5000    0.0000    0.0000 C   0  0  0  0  0  0  0  0  0  0  0  0
    0.7500    1.2990    0.0000 C   0  0  0  0  0  0  0  0  0  0  0  0
   -0.7500    1.2990    0.0000 C   0  0  0  0  0  0  0  0  0  0  0  0
   -1.5000    2.5981    0.0000 C   0  0  0  0  0  0  0  0  0  0  0  0
   -2.2500    3.8971    0.0000 N   0  0  0  0  0  0  0  0  0  0  0  0
   -1.5000    0.0000    0.0000 C   0  0  0  0  0  0  0  0  0  0  0  0
   -3.0000    0.0000    0.0000 C   0  0  0  0  0  0  0  0  0  0  0  0
   -4.5000    0.0000    0.0000 F   0  0  0  0  0  0  0  0  0  0  0  0
   -3.0000   -1.5000    0.0000 F   0  0  0  0  0  0  0  0  0  0  0  0
   -3.0000    1.5000    0.0000 F   0  0  0  0  0  0  0  0  0  0  0  0
   -0.7500   -1.2990    0.0000 C   0  0  0  0  0  0  0  0  0  0  0  0
    0.8899   -3.9684    0.0000 C   0  0  0  0  0  0  0  0  0  0  0  0
   -0.5773   -4.2803    0.0000 S   0  0  0  0  0  0  0  0  0  0  0  0
    2.0046   -4.9721    0.0000 N   0  0  0  0  0  0  0  0  0  0  0  0
    1.8478   -6.4639    0.0000 C   0  0  0  0  0  0  0  0  0  0  0  0
    0.4775   -7.0740    0.0000 C   0  0  0  0  0  0  0  0  0  0  0  0
    0.3207   -8.5658    0.0000 S   0  0  0  0  0  0  0  0  0  0  0  0
    0.1639  -10.0575    0.0000 N   0  0  0  0  0  0  0  0  0  0  0  0
   -1.1711   -8.4090    0.0000 O   0  0  0  0  0  0  0  0  0  0  0  0
    1.8125   -8.7226    0.0000 O   0  0  0  0  0  0  0  0  0  0  0  0
  1  2  1  0
  2  3  1  0
  2  4  1  0
  4  5  2  0
  4  6  1  0
  6  7  1  0
  7  8  2  0
  8  9  1  0
  9 10  2  0
 10 11  1  0
 11 12  3  0
 10 13  1  0
 13 14  1  0
 14 15  1  0
 14 16  1  0
 14 17  1  0
 13 18  2  0
  6 19  1  0
 19 20  2  0
 19 21  1  0
 21 22  1  0
 22 23  1  0
 23 24  1  0
 24 25  1  0
 24 26  2  0
 24 27  2  0
 21  2  1  0
 18  7  1  0
M  END
>  <assay_chembl_id>  (283) 
CHEMBL1121343

>  <assay_description>  (283) 
Displacement of [3H]mibolerone from human AR expressed in CHO-K1 cells after 2 hrs by scintillation counting

>  <parent_molecule_chembl_id>  (283) 
CHEMBL1097855

>  <canonical_smiles>  (283) 
CC1(C)C(=O)N(c2ccc(C#N)c(C(F)(F)F)c2)C(=S)N1CCS(N)(=O)=O

>  <standard_type>  (283) 
IC50

>  <standard_relation>  (283) 
=

>  <standard_value>  (283) 
770.0

>  <standard_units>  (283) 
nM

>  <target_pref_name>  (283) 
Androgen Receptor

>  <target_chembl_id>  (283) 
CHEMBL1871

>  <target_organism>  (283) 
Homo sapiens

>  <pchembl_median>  (283) 
4.94

$$$$
CHEMBL1098174
     RDKit          2D

 26 27  0  0  0  0  0  0  0  0999 V2000
    3.7500   -1.2990    0.0000 C   0  0  0  0  0  0  0  0  0  0  0  0
    3.0000    0.0000    0.0000 O   0  0  0  0  0  0  0  0  0  0  0  0
    1.5000    0.0000    0.0000 C   0  0  0  0  0  0  0  0  0  0  0  0
    0.7500   -1.2990    0.0000 C   0  0  0  0  0  0  0  0  0  0  0  0
   -0.7500   -1.2990    0.0000 C   0  0  0  0  0  0  0  0  0  0  0  0
   -1.5000   -2.5981    0.0000 N   0  0  0  0  0  0  0  0  0  0  0  0
   -0.8899   -3.9684    0.0000 C   0  0  0  0  0  0  0  0  0  0  0  0
    0.5773   -4.2803    0.0000 O   0  0  0  0  0  0  0  0  0  0  0  0
   -2.0046   -4.9721    0.0000 C   0  0  0  0  0  0  0  0  0  0  0  0
   -0.8899   -5.9758    0.0000 C   0  0  0  0  0  0  0  0  0  0  0  0
   -2.8863   -6.1856    0.0000 C   0  0  0  0  0  0  0  0  0  0  0  0
   -3.3037   -4.2221    0.0000 N   0  0  0  0  0  0  0  0  0  0  0  0
   -4.6740   -4.8322    0.0000 C   0  0  0  0  0  0  0  0  0  0  0  0
   -5.8875   -3.9505    0.0000 C   0  0  0  0  0  0  0  0  0  0  0  0
   -7.2578   -4.5606    0.0000 C   0  0  0  0  0  0  0  0  0  0  0  0
   -8.4713   -3.6789    0.0000 S   0  0  0  0  0  0  0  0  0  0  0  0
   -9.6849   -2.7973    0.0000 N   0  0  0  0  0  0  0  0  0  0  0  0
   -9.3530   -4.8925    0.0000 O   0  0  0  0  0  0  0  0  0  0  0  0
   -7.5897   -2.4654    0.0000 O   0  0  0  0  0  0  0  0  0  0  0  0
   -2.9918   -2.7549    0.0000 C   0  0  0  0  0  0  0  0  0  0  0  0
   -3.9955   -1.6402    0.0000 S   0  0  0  0  0  0  0  0  0  0  0  0
   -1.5000    0.0000    0.0000 C   0  0  0  0  0  0  0  0  0  0  0  0
   -0.7500    1.2990    0.0000 C   0  0  0  0  0  0  0  0  0  0  0  0
    0.7500    1.2990    0.0000 C   0  0  0  0  0  0  0  0  0  0  0  0
    1.5000    2.5981    0.0000 C   0  0  0  0  0  0  0  0  0  0  0  0
    2.2500    3.8971    0.0000 N   0  0  0  0  0  0  0  0  0  0  0  0
  1  2  1  0
  2  3  1  0
  3  4  2  0
  4  5  1  0
  5  6  1  0
  6  7  1  0
  7  8  2  0
  7  9  1  0
  9 10  1  0
  9 11  1  0
  9 12  1  0
 12 13  1  0
 13 14  1  0
 14 15  1  0
 15 16  1  0
 16 17  1  0
 16 18  2  0
 16 19  2  0
 12 20  1  0
 20 21  2  0
  5 22  2  0
 22 23  1  0
 23 24  2  0
 24 25  1  0
 25 26  3  0
 24  3  1  0
 20  6  1  0
M  END
>  <assay_chembl_id>  (284) 
CHEMBL1121343

>  <assay_description>  (284) 
Displacement of [3H]mibolerone from human AR expressed in CHO-K1 cells after 2 hrs by scintillation counting

>  <parent_molecule_chembl_id>  (284) 
CHEMBL1098174

>  <canonical_smiles>  (284) 
COc1cc(N2C(=O)C(C)(C)N(CCCS(N)(=O)=O)C2=S)ccc1C#N

>  <standard_type>  (284) 
IC50

>  <standard_relation>  (284) 
=

>  <standard_value>  (284) 
1900.0

>  <standard_units>  (284) 
nM

>  <target_pref_name>  (284) 
Androgen Receptor

>  <target_chembl_id>  (284) 
CHEMBL1871

>  <target_organism>  (284) 
Homo sapiens

>  <pchembl_median>  (284) 
7.06

$$$$
CHEMBL1099086
     RDKit          2D

 25 26  0  0  0  0  0  0  0  0999 V2000
    4.7302   -3.7586    0.0000 C   0  0  0  0  0  0  0  0  0  0  0  0
    3.3037   -4.2221    0.0000 C   0  0  0  0  0  0  0  0  0  0  0  0
    3.9138   -5.5924    0.0000 C   0  0  0  0  0  0  0  0  0  0  0  0
    2.9918   -2.7549    0.0000 C   0  0  0  0  0  0  0  0  0  0  0  0
    3.9955   -1.6402    0.0000 O   0  0  0  0  0  0  0  0  0  0  0  0
    1.5000   -2.5981    0.0000 N   0  0  0  0  0  0  0  0  0  0  0  0
    0.7500   -1.2990    0.0000 C   0  0  0  0  0  0  0  0  0  0  0  0
    1.5000    0.0000    0.0000 C   0  0  0  0  0  0  0  0  0  0  0  0
    0.7500    1.2990    0.0000 C   0  0  0  0  0  0  0  0  0  0  0  0
   -0.7500    1.2990    0.0000 C   0  0  0  0  0  0  0  0  0  0  0  0
   -1.5000    2.5981    0.0000 C   0  0  0  0  0  0  0  0  0  0  0  0
   -2.2500    3.8971    0.0000 N   0  0  0  0  0  0  0  0  0  0  0  0
   -1.5000    0.0000    0.0000 C   0  0  0  0  0  0  0  0  0  0  0  0
   -3.0000    0.0000    0.0000 Cl  0  0  0  0  0  0  0  0  0  0  0  0
   -0.7500   -1.2990    0.0000 C   0  0  0  0  0  0  0  0  0  0  0  0
    0.8899   -3.9684    0.0000 C   0  0  0  0  0  0  0  0  0  0  0  0
   -0.5773   -4.2803    0.0000 S   0  0  0  0  0  0  0  0  0  0  0  0
    2.0046   -4.9721    0.0000 N   0  0  0  0  0  0  0  0  0  0  0  0
    1.8478   -6.4639    0.0000 C   0  0  0  0  0  0  0  0  0  0  0  0
    0.4775   -7.0740    0.0000 C   0  0  0  0  0  0  0  0  0  0  0  0
    0.3207   -8.5658    0.0000 C   0  0  0  0  0  0  0  0  0  0  0  0
   -1.0496   -9.1759    0.0000 S   0  0  0  0  0  0  0  0  0  0  0  0
   -2.4199   -9.7860    0.0000 N   0  0  0  0  0  0  0  0  0  0  0  0
   -0.4395  -10.5462    0.0000 O   0  0  0  0  0  0  0  0  0  0  0  0
   -1.6597   -7.8055    0.0000 O   0  0  0  0  0  0  0  0  0  0  0  0
  1  2  1  0
  2  3  1  0
  2  4  1  0
  4  5  2  0
  4  6  1  0
  6  7  1  0
  7  8  2  0
  8  9  1  0
  9 10  2  0
 10 11  1  0
 11 12  3  0
 10 13  1  0
 13 14  1  0
 13 15  2  0
  6 16  1  0
 16 17  2  0
 16 18  1  0
 18 19  1  0
 19 20  1  0
 20 21  1  0
 21 22  1  0
 22 23  1  0
 22 24  2  0
 22 25  2  0
 18  2  1  0
 15  7  1  0
M  END
>  <assay_chembl_id>  (285) 
CHEMBL1121343

>  <assay_description>  (285) 
Displacement of [3H]mibolerone from human AR expressed in CHO-K1 cells after 2 hrs by scintillation counting

>  <parent_molecule_chembl_id>  (285) 
CHEMBL1099086

>  <canonical_smiles>  (285) 
CC1(C)C(=O)N(c2ccc(C#N)c(Cl)c2)C(=S)N1CCCS(N)(=O)=O

>  <standard_type>  (285) 
IC50

>  <standard_relation>  (285) 
=

>  <standard_value>  (285) 
440.0

>  <standard_units>  (285) 
nM

>  <target_pref_name>  (285) 
Androgen Receptor

>  <target_chembl_id>  (285) 
CHEMBL1871

>  <target_organism>  (285) 
Homo sapiens

>  <pchembl_median>  (285) 
8.0

$$$$
CHEMBL1099087
     RDKit          2D

 29 30  0  0  0  0  0  0  0  0999 V2000
    3.0000    0.0000    0.0000 C   0  0  0  0  0  0  0  0  0  0  0  0
    1.5000    0.0000    0.0000 C   0  0  0  0  0  0  0  0  0  0  0  0
    0.7500   -1.2990    0.0000 C   0  0  0  0  0  0  0  0  0  0  0  0
    1.5000   -2.5981    0.0000 N   0  0  0  0  0  0  0  0  0  0  0  0
    2.9918   -2.7549    0.0000 C   0  0  0  0  0  0  0  0  0  0  0  0
    3.9955   -1.6402    0.0000 O   0  0  0  0  0  0  0  0  0  0  0  0
    3.3037   -4.2221    0.0000 C   0  0  0  0  0  0  0  0  0  0  0  0
    4.7302   -3.7586    0.0000 C   0  0  0  0  0  0  0  0  0  0  0  0
    3.9138   -5.5924    0.0000 C   0  0  0  0  0  0  0  0  0  0  0  0
    2.0046   -4.9721    0.0000 N   0  0  0  0  0  0  0  0  0  0  0  0
    1.8478   -6.4639    0.0000 C   0  0  0  0  0  0  0  0  0  0  0  0
    0.4775   -7.0740    0.0000 C   0  0  0  0  0  0  0  0  0  0  0  0
    0.3207   -8.5658    0.0000 C   0  0  0  0  0  0  0  0  0  0  0  0
   -1.0496   -9.1759    0.0000 S   0  0  0  0  0  0  0  0  0  0  0  0
   -2.4199   -9.7860    0.0000 N   0  0  0  0  0  0  0  0  0  0  0  0
   -0.4395  -10.5462    0.0000 O   0  0  0  0  0  0  0  0  0  0  0  0
   -1.6597   -7.8055    0.0000 O   0  0  0  0  0  0  0  0  0  0  0  0
    0.8899   -3.9684    0.0000 C   0  0  0  0  0  0  0  0  0  0  0  0
   -0.5773   -4.2803    0.0000 S   0  0  0  0  0  0  0  0  0  0  0  0
   -0.7500   -1.2990    0.0000 C   0  0  0  0  0  0  0  0  0  0  0  0
   -1.5000    0.0000    0.0000 C   0  0  0  0  0  0  0  0  0  0  0  0
   -0.7500    1.2990    0.0000 C   0  0  0  0  0  0  0  0  0  0  0  0
   -1.5000    2.5981    0.0000 C   0  0  0  0  0  0  0  0  0  0  0  0
   -2.2500    3.8971    0.0000 N   0  0  0  0  0  0  0  0  0  0  0  0
    0.7500    1.2990    0.0000 C   0  0  0  0  0  0  0  0  0  0  0  0
    1.5000    2.5981    0.0000 C   0  0  0  0  0  0  0  0  0  0  0  0
    2.2500    3.8971    0.0000 F   0  0  0  0  0  0  0  0  0  0  0  0
    2.7990    1.8481    0.0000 F   0  0  0  0  0  0  0  0  0  0  0  0
    0.2010    3.3481    0.0000 F   0  0  0  0  0  0  0  0  0  0  0  0
  1  2  1  0
  2  3  2  0
  3  4  1  0
  4  5  1  0
  5  6  2  0
  5  7  1  0
  7  8  1  0
  7  9  1  0
  7 10  1  0
 10 11  1  0
 11 12  1  0
 12 13  1  0
 13 14  1  0
 14 15  1  0
 14 16  2  0
 14 17  2  0
 10 18  1  0
 18 19  2  0
  3 20  1  0
 20 21  2  0
 21 22  1  0
 22 23  1  0
 23 24  3  0
 22 25  2  0
 25 26  1  0
 26 27  1  0
 26 28  1  0
 26 29  1  0
 25  2  1  0
 18  4  1  0
M  END
>  <assay_chembl_id>  (286) 
CHEMBL1121343

>  <assay_description>  (286) 
Displacement of [3H]mibolerone from human AR expressed in CHO-K1 cells after 2 hrs by scintillation counting

>  <parent_molecule_chembl_id>  (286) 
CHEMBL1099087

>  <canonical_smiles>  (286) 
Cc1c(N2C(=O)C(C)(C)N(CCCS(N)(=O)=O)C2=S)ccc(C#N)c1C(F)(F)F

>  <standard_type>  (286) 
IC50

>  <standard_relation>  (286) 
=

>  <standard_value>  (286) 
260.0

>  <standard_units>  (286) 
nM

>  <target_pref_name>  (286) 
Androgen Receptor

>  <target_chembl_id>  (286) 
CHEMBL1871

>  <target_organism>  (286) 
Homo sapiens

>  <pchembl_median>  (286) 
6.3

$$$$
CHEMBL1084843
     RDKit          2D

 30 32  0  0  0  0  0  0  0  0999 V2000
    3.7500   -1.2990    0.0000 C   0  0  0  0  0  0  0  0  0  0  0  0
    3.0000    0.0000    0.0000 S   0  0  0  0  0  0  0  0  0  0  0  0
    1.5000    0.0000    0.0000 C   0  0  0  0  0  0  0  0  0  0  0  0
    0.7500   -1.2990    0.0000 C   0  0  0  0  0  0  0  0  0  0  0  0
   -0.7500   -1.2990    0.0000 C   0  0  0  0  0  0  0  0  0  0  0  0
   -1.5000    0.0000    0.0000 C   0  0  0  0  0  0  0  0  0  0  0  0
   -3.0000    0.0000    0.0000 C   0  0  0  0  0  0  0  0  0  0  0  0
   -3.7500    1.2990    0.0000 N   0  0  0  0  0  0  0  0  0  0  0  0
   -5.2418    1.4558    0.0000 C   0  0  0  0  0  0  0  0  0  0  0  0
   -5.5537    2.9231    0.0000 C   0  0  0  0  0  0  0  0  0  0  0  0
   -6.9802    2.4595    0.0000 C   0  0  0  0  0  0  0  0  0  0  0  0
   -6.1638    4.2934    0.0000 C   0  0  0  0  0  0  0  0  0  0  0  0
   -4.2546    3.6731    0.0000 C   0  0  0  0  0  0  0  0  0  0  0  0
   -4.0978    5.1648    0.0000 O   0  0  0  0  0  0  0  0  0  0  0  0
   -2.7275    5.7749    0.0000 C   0  0  0  0  0  0  0  0  0  0  0  0
   -1.5140    4.8933    0.0000 C   0  0  0  0  0  0  0  0  0  0  0  0
   -0.1437    5.5034    0.0000 C   0  0  0  0  0  0  0  0  0  0  0  0
    0.0131    6.9951    0.0000 C   0  0  0  0  0  0  0  0  0  0  0  0
    1.3835    7.6053    0.0000 C   0  0  0  0  0  0  0  0  0  0  0  0
    2.7538    8.2154    0.0000 N   0  0  0  0  0  0  0  0  0  0  0  0
   -1.2004    7.8768    0.0000 C   0  0  0  0  0  0  0  0  0  0  0  0
   -1.0436    9.3686    0.0000 C   0  0  0  0  0  0  0  0  0  0  0  0
   -0.8868   10.8604    0.0000 F   0  0  0  0  0  0  0  0  0  0  0  0
   -2.5354    9.5254    0.0000 F   0  0  0  0  0  0  0  0  0  0  0  0
    0.4482    9.2118    0.0000 F   0  0  0  0  0  0  0  0  0  0  0  0
   -2.5707    7.2667    0.0000 C   0  0  0  0  0  0  0  0  0  0  0  0
   -3.1399    2.6694    0.0000 C   0  0  0  0  0  0  0  0  0  0  0  0
   -1.6727    2.9812    0.0000 O   0  0  0  0  0  0  0  0  0  0  0  0
   -0.7500    1.2990    0.0000 C   0  0  0  0  0  0  0  0  0  0  0  0
    0.7500    1.2990    0.0000 C   0  0  0  0  0  0  0  0  0  0  0  0
  1  2  1  0
  2  3  1  0
  3  4  2  0
  4  5  1  0
  5  6  2  0
  6  7  1  0
  7  8  1  0
  8  9  1  0
  9 10  1  0
 10 11  1  0
 10 12  1  0
 10 13  1  0
 13 14  1  1
 14 15  1  0
 15 16  2  0
 16 17  1  0
 17 18  2  0
 18 19  1  0
 19 20  3  0
 18 21  1  0
 21 22  1  0
 22 23  1  0
 22 24  1  0
 22 25  1  0
 21 26  2  0
 13 27  1  0
 27 28  2  0
  6 29  1  0
 29 30  2  0
 30  3  1  0
 27  8  1  0
 26 15  1  0
M  END
>  <assay_chembl_id>  (287) 
CHEMBL1118177

>  <assay_description>  (287) 
Antagonist activity at androgen receptor in human MDA-MB-453 cells coexpressing MMTV-ARE reporter gene assessed as inhibition of DHT-induced response

>  <parent_molecule_chembl_id>  (287) 
CHEMBL1084843

>  <canonical_smiles>  (287) 
CSc1ccc(CN2CC(C)(C)[C@@H](Oc3ccc(C#N)c(C(F)(F)F)c3)C2=O)cc1

>  <standard_type>  (287) 
IC50

>  <standard_relation>  (287) 
=

>  <standard_value>  (287) 
28.0

>  <standard_units>  (287) 
nM

>  <target_pref_name>  (287) 
Androgen Receptor

>  <target_chembl_id>  (287) 
CHEMBL1871

>  <target_organism>  (287) 
Homo sapiens

>  <pchembl_median>  (287) 
7.36

$$$$
CHEMBL507671
     RDKit          2D

 20 21  0  0  0  0  0  0  0  0999 V2000
    4.5000    0.0000    0.0000 N   0  0  0  0  0  0  0  0  0  0  0  0
    3.0000    0.0000    0.0000 C   0  0  0  0  0  0  0  0  0  0  0  0
    1.5000    0.0000    0.0000 C   0  0  0  0  0  0  0  0  0  0  0  0
    0.7500   -1.2990    0.0000 C   0  0  0  0  0  0  0  0  0  0  0  0
   -0.7500   -1.2990    0.0000 C   0  0  0  0  0  0  0  0  0  0  0  0
   -1.5000    0.0000    0.0000 C   0  0  0  0  0  0  0  0  0  0  0  0
   -3.0000    0.0000    0.0000 S   0  0  0  0  0  0  0  0  0  0  0  0
   -3.7500    1.2990    0.0000 C   0  0  0  0  0  0  0  0  0  0  0  0
   -3.0000    2.5981    0.0000 C   0  0  0  0  0  0  0  0  0  0  0  0
   -3.7500    3.8971    0.0000 C   0  0  0  0  0  0  0  0  0  0  0  0
   -5.2500    3.8971    0.0000 C   0  0  0  0  0  0  0  0  0  0  0  0
   -6.0000    2.5981    0.0000 C   0  0  0  0  0  0  0  0  0  0  0  0
   -5.2500    1.2990    0.0000 C   0  0  0  0  0  0  0  0  0  0  0  0
   -6.0000    0.0000    0.0000 F   0  0  0  0  0  0  0  0  0  0  0  0
   -0.7500    1.2990    0.0000 C   0  0  0  0  0  0  0  0  0  0  0  0
    0.7500    1.2990    0.0000 C   0  0  0  0  0  0  0  0  0  0  0  0
    1.5000    2.5981    0.0000 C   0  0  0  0  0  0  0  0  0  0  0  0
    2.2500    3.8971    0.0000 F   0  0  0  0  0  0  0  0  0  0  0  0
    0.2010    3.3481    0.0000 F   0  0  0  0  0  0  0  0  0  0  0  0
    2.7990    1.8481    0.0000 F   0  0  0  0  0  0  0  0  0  0  0  0
  1  2  3  0
  2  3  1  0
  3  4  2  0
  4  5  1  0
  5  6  2  0
  6  7  1  0
  7  8  1  0
  8  9  2  0
  9 10  1  0
 10 11  2  0
 11 12  1  0
 12 13  2  0
 13 14  1  0
  6 15  1  0
 15 16  2  0
 16 17  1  0
 17 18  1  0
 17 19  1  0
 17 20  1  0
 16  3  1  0
 13  8  1  0
M  END
>  <assay_chembl_id>  (288) 
CHEMBL1118177

>  <assay_description>  (288) 
Antagonist activity at androgen receptor in human MDA-MB-453 cells coexpressing MMTV-ARE reporter gene assessed as inhibition of DHT-induced response

>  <parent_molecule_chembl_id>  (288) 
CHEMBL507671

>  <canonical_smiles>  (288) 
N#Cc1ccc(Sc2ccccc2F)cc1C(F)(F)F

>  <standard_type>  (288) 
IC50

>  <standard_relation>  (288) 
=

>  <standard_value>  (288) 
54.0

>  <standard_units>  (288) 
nM

>  <target_pref_name>  (288) 
Androgen Receptor

>  <target_chembl_id>  (288) 
CHEMBL1871

>  <target_organism>  (288) 
Homo sapiens

>  <pchembl_median>  (288) 
8.125

$$$$
CHEMBL1085819
     RDKit          2D

 29 31  0  0  0  0  0  0  0  0999 V2000
    1.3601   -7.2748    0.0000 C   0  0  0  0  0  0  0  0  0  0  0  0
    0.2454   -6.2711    0.0000 C   0  0  0  0  0  0  0  0  0  0  0  0
   -0.6363   -7.4847    0.0000 C   0  0  0  0  0  0  0  0  0  0  0  0
    1.3601   -5.2674    0.0000 C   0  0  0  0  0  0  0  0  0  0  0  0
    0.7500   -3.8971    0.0000 N   0  0  0  0  0  0  0  0  0  0  0  0
    1.5000   -2.5981    0.0000 C   0  0  0  0  0  0  0  0  0  0  0  0
    3.0000   -2.5981    0.0000 C   0  0  0  0  0  0  0  0  0  0  0  0
    3.7500   -1.2990    0.0000 C   0  0  0  0  0  0  0  0  0  0  0  0
    5.2500   -1.2990    0.0000 C   0  0  0  0  0  0  0  0  0  0  0  0
    6.0000   -2.5981    0.0000 C   0  0  0  0  0  0  0  0  0  0  0  0
    5.2500   -3.8971    0.0000 C   0  0  0  0  0  0  0  0  0  0  0  0
    3.7500   -3.8971    0.0000 C   0  0  0  0  0  0  0  0  0  0  0  0
    3.0000   -5.1962    0.0000 F   0  0  0  0  0  0  0  0  0  0  0  0
   -0.7418   -4.0539    0.0000 C   0  0  0  0  0  0  0  0  0  0  0  0
   -1.7455   -2.9392    0.0000 O   0  0  0  0  0  0  0  0  0  0  0  0
   -1.0537   -5.5211    0.0000 C   0  0  0  0  0  0  0  0  0  0  0  0
   -2.4240   -6.1312    0.0000 O   0  0  0  0  0  0  0  0  0  0  0  0
   -3.6375   -5.2496    0.0000 C   0  0  0  0  0  0  0  0  0  0  0  0
   -3.4807   -3.7578    0.0000 C   0  0  0  0  0  0  0  0  0  0  0  0
   -4.6942   -2.8761    0.0000 C   0  0  0  0  0  0  0  0  0  0  0  0
   -6.0645   -3.4862    0.0000 C   0  0  0  0  0  0  0  0  0  0  0  0
   -7.2781   -2.6045    0.0000 C   0  0  0  0  0  0  0  0  0  0  0  0
   -8.4916   -1.7228    0.0000 N   0  0  0  0  0  0  0  0  0  0  0  0
   -6.2213   -4.9780    0.0000 C   0  0  0  0  0  0  0  0  0  0  0  0
   -7.5917   -5.5881    0.0000 C   0  0  0  0  0  0  0  0  0  0  0  0
   -8.9620   -6.1982    0.0000 F   0  0  0  0  0  0  0  0  0  0  0  0
   -6.9816   -6.9584    0.0000 F   0  0  0  0  0  0  0  0  0  0  0  0
   -8.2018   -4.2178    0.0000 F   0  0  0  0  0  0  0  0  0  0  0  0
   -5.0078   -5.8597    0.0000 C   0  0  0  0  0  0  0  0  0  0  0  0
  1  2  1  0
  2  3  1  0
  2  4  1  0
  4  5  1  0
  5  6  1  0
  6  7  1  0
  7  8  2  0
  8  9  1  0
  9 10  2  0
 10 11  1  0
 11 12  2  0
 12 13  1  0
  5 14  1  0
 14 15  2  0
 14 16  1  0
 16 17  1  1
 17 18  1  0
 18 19  2  0
 19 20  1  0
 20 21  2  0
 21 22  1  0
 22 23  3  0
 21 24  1  0
 24 25  1  0
 25 26  1  0
 25 27  1  0
 25 28  1  0
 24 29  2  0
 16  2  1  0
 29 18  1  0
 12  7  1  0
M  END
>  <assay_chembl_id>  (289) 
CHEMBL1118177

>  <assay_description>  (289) 
Antagonist activity at androgen receptor in human MDA-MB-453 cells coexpressing MMTV-ARE reporter gene assessed as inhibition of DHT-induced response

>  <parent_molecule_chembl_id>  (289) 
CHEMBL1085819

>  <canonical_smiles>  (289) 
CC1(C)CN(Cc2ccccc2F)C(=O)[C@@H]1Oc1ccc(C#N)c(C(F)(F)F)c1

>  <standard_type>  (289) 
IC50

>  <standard_relation>  (289) 
=

>  <standard_value>  (289) 
44.0

>  <standard_units>  (289) 
nM

>  <target_pref_name>  (289) 
Androgen Receptor

>  <target_chembl_id>  (289) 
CHEMBL1871

>  <target_organism>  (289) 
Homo sapiens

>  <pchembl_median>  (289) 
9.7

$$$$
CHEMBL1085594
     RDKit          2D

 21 22  0  0  0  0  0  0  0  0999 V2000
    4.5000    0.0000    0.0000 N   0  0  0  0  0  0  0  0  0  0  0  0
    3.0000    0.0000    0.0000 C   0  0  0  0  0  0  0  0  0  0  0  0
    1.5000    0.0000    0.0000 C   0  0  0  0  0  0  0  0  0  0  0  0
    0.7500   -1.2990    0.0000 C   0  0  0  0  0  0  0  0  0  0  0  0
   -0.7500   -1.2990    0.0000 C   0  0  0  0  0  0  0  0  0  0  0  0
   -1.5000    0.0000    0.0000 C   0  0  0  0  0  0  0  0  0  0  0  0
   -3.0000    0.0000    0.0000 O   0  0  0  0  0  0  0  0  0  0  0  0
   -3.7500    1.2990    0.0000 C   0  0  0  0  0  0  0  0  0  0  0  0
   -3.0000    2.5981    0.0000 C   0  0  0  0  0  0  0  0  0  0  0  0
   -3.7500    3.8971    0.0000 C   0  0  0  0  0  0  0  0  0  0  0  0
   -5.2500    3.8971    0.0000 C   0  0  0  0  0  0  0  0  0  0  0  0
   -6.0000    5.1962    0.0000 F   0  0  0  0  0  0  0  0  0  0  0  0
   -6.0000    2.5981    0.0000 C   0  0  0  0  0  0  0  0  0  0  0  0
   -5.2500    1.2990    0.0000 C   0  0  0  0  0  0  0  0  0  0  0  0
   -6.0000    0.0000    0.0000 F   0  0  0  0  0  0  0  0  0  0  0  0
   -0.7500    1.2990    0.0000 C   0  0  0  0  0  0  0  0  0  0  0  0
    0.7500    1.2990    0.0000 C   0  0  0  0  0  0  0  0  0  0  0  0
    1.5000    2.5981    0.0000 C   0  0  0  0  0  0  0  0  0  0  0  0
    2.2500    3.8971    0.0000 F   0  0  0  0  0  0  0  0  0  0  0  0
    0.2010    3.3481    0.0000 F   0  0  0  0  0  0  0  0  0  0  0  0
    2.7990    1.8481    0.0000 F   0  0  0  0  0  0  0  0  0  0  0  0
  1  2  3  0
  2  3  1  0
  3  4  2  0
  4  5  1  0
  5  6  2  0
  6  7  1  0
  7  8  1  0
  8  9  2  0
  9 10  1  0
 10 11  2  0
 11 12  1  0
 11 13  1  0
 13 14  2  0
 14 15  1  0
  6 16  1  0
 16 17  2  0
 17 18  1  0
 18 19  1  0
 18 20  1  0
 18 21  1  0
 17  3  1  0
 14  8  1  0
M  END
>  <assay_chembl_id>  (290) 
CHEMBL1118177

>  <assay_description>  (290) 
Antagonist activity at androgen receptor in human MDA-MB-453 cells coexpressing MMTV-ARE reporter gene assessed as inhibition of DHT-induced response

>  <parent_molecule_chembl_id>  (290) 
CHEMBL1085594

>  <canonical_smiles>  (290) 
N#Cc1ccc(Oc2ccc(F)cc2F)cc1C(F)(F)F

>  <standard_type>  (290) 
IC50

>  <standard_relation>  (290) 
=

>  <standard_value>  (290) 
60.0

>  <standard_units>  (290) 
nM

>  <target_pref_name>  (290) 
Androgen Receptor

>  <target_chembl_id>  (290) 
CHEMBL1871

>  <target_organism>  (290) 
Homo sapiens

>  <pchembl_median>  (290) 
7.92

$$$$
CHEMBL1085593
     RDKit          2D

 28 30  0  0  0  0  0  0  0  0999 V2000
    1.3601   -7.2748    0.0000 C   0  0  0  0  0  0  0  0  0  0  0  0
    0.2454   -6.2711    0.0000 C   0  0  0  0  0  0  0  0  0  0  0  0
   -0.6363   -7.4847    0.0000 C   0  0  0  0  0  0  0  0  0  0  0  0
    1.3601   -5.2674    0.0000 C   0  0  0  0  0  0  0  0  0  0  0  0
    0.7500   -3.8971    0.0000 N   0  0  0  0  0  0  0  0  0  0  0  0
    1.5000   -2.5981    0.0000 C   0  0  0  0  0  0  0  0  0  0  0  0
    0.7500   -1.2990    0.0000 C   0  0  0  0  0  0  0  0  0  0  0  0
    1.5000    0.0000    0.0000 C   0  0  0  0  0  0  0  0  0  0  0  0
    0.7500    1.2990    0.0000 C   0  0  0  0  0  0  0  0  0  0  0  0
   -0.7500    1.2990    0.0000 C   0  0  0  0  0  0  0  0  0  0  0  0
   -1.5000    0.0000    0.0000 C   0  0  0  0  0  0  0  0  0  0  0  0
   -0.7500   -1.2990    0.0000 C   0  0  0  0  0  0  0  0  0  0  0  0
   -0.7418   -4.0539    0.0000 C   0  0  0  0  0  0  0  0  0  0  0  0
   -1.7455   -2.9392    0.0000 O   0  0  0  0  0  0  0  0  0  0  0  0
   -1.0537   -5.5211    0.0000 C   0  0  0  0  0  0  0  0  0  0  0  0
   -2.4240   -6.1312    0.0000 O   0  0  0  0  0  0  0  0  0  0  0  0
   -3.6375   -5.2496    0.0000 C   0  0  0  0  0  0  0  0  0  0  0  0
   -3.4807   -3.7578    0.0000 C   0  0  0  0  0  0  0  0  0  0  0  0
   -4.6942   -2.8761    0.0000 C   0  0  0  0  0  0  0  0  0  0  0  0
   -6.0645   -3.4862    0.0000 C   0  0  0  0  0  0  0  0  0  0  0  0
   -7.2781   -2.6045    0.0000 C   0  0  0  0  0  0  0  0  0  0  0  0
   -8.4916   -1.7228    0.0000 N   0  0  0  0  0  0  0  0  0  0  0  0
   -6.2213   -4.9780    0.0000 C   0  0  0  0  0  0  0  0  0  0  0  0
   -7.5917   -5.5881    0.0000 C   0  0  0  0  0  0  0  0  0  0  0  0
   -8.9620   -6.1982    0.0000 F   0  0  0  0  0  0  0  0  0  0  0  0
   -6.9816   -6.9584    0.0000 F   0  0  0  0  0  0  0  0  0  0  0  0
   -8.2018   -4.2178    0.0000 F   0  0  0  0  0  0  0  0  0  0  0  0
   -5.0078   -5.8597    0.0000 C   0  0  0  0  0  0  0  0  0  0  0  0
  1  2  1  0
  2  3  1  0
  2  4  1  0
  4  5  1  0
  5  6  1  0
  6  7  1  0
  7  8  2  0
  8  9  1  0
  9 10  2  0
 10 11  1  0
 11 12  2  0
  5 13  1  0
 13 14  2  0
 13 15  1  0
 15 16  1  1
 16 17  1  0
 17 18  2  0
 18 19  1  0
 19 20  2  0
 20 21  1  0
 21 22  3  0
 20 23  1  0
 23 24  1  0
 24 25  1  0
 24 26  1  0
 24 27  1  0
 23 28  2  0
 15  2  1  0
 28 17  1  0
 12  7  1  0
M  END
>  <assay_chembl_id>  (291) 
CHEMBL1118177

>  <assay_description>  (291) 
Antagonist activity at androgen receptor in human MDA-MB-453 cells coexpressing MMTV-ARE reporter gene assessed as inhibition of DHT-induced response

>  <parent_molecule_chembl_id>  (291) 
CHEMBL1085593

>  <canonical_smiles>  (291) 
CC1(C)CN(Cc2ccccc2)C(=O)[C@@H]1Oc1ccc(C#N)c(C(F)(F)F)c1

>  <standard_type>  (291) 
IC50

>  <standard_relation>  (291) 
=

>  <standard_value>  (291) 
38.0

>  <standard_units>  (291) 
nM

>  <target_pref_name>  (291) 
Androgen Receptor

>  <target_chembl_id>  (291) 
CHEMBL1871

>  <target_organism>  (291) 
Homo sapiens

>  <pchembl_median>  (291) 
8.0

$$$$
CHEMBL1253832
     RDKit          2D

 28 32  0  0  0  0  0  0  0  0999 V2000
   -5.2784   -5.6374    0.0000 C   0  0  0  0  0  0  0  0  0  0  0  0
   -4.8901   -7.0863    0.0000 C   0  0  0  0  0  0  0  0  0  0  0  0
   -3.4635   -6.6227    0.0000 C   0  0  0  0  0  0  0  0  0  0  0  0
   -2.2500   -7.5044    0.0000 C   0  0  0  0  0  0  0  0  0  0  0  0
   -1.0365   -6.6227    0.0000 C   0  0  0  0  0  0  0  0  0  0  0  0
   -1.5000   -5.1962    0.0000 C   0  0  0  0  0  0  0  0  0  0  0  0
   -0.7500   -3.8971    0.0000 C   0  0  0  0  0  0  0  0  0  0  0  0
    0.7500   -3.8971    0.0000 C   0  0  0  0  0  0  0  0  0  0  0  0
    1.5000   -2.5981    0.0000 C   0  0  0  0  0  0  0  0  0  0  0  0
    0.7500   -1.2990    0.0000 C   0  0  0  0  0  0  0  0  0  0  0  0
    1.5000    0.0000    0.0000 C   0  0  0  0  0  0  0  0  0  0  0  0
    0.7500    1.2990    0.0000 C   0  0  0  0  0  0  0  0  0  0  0  0
    1.5000    2.5981    0.0000 O   0  0  0  0  0  0  0  0  0  0  0  0
   -0.7500    1.2990    0.0000 C   0  0  0  0  0  0  0  0  0  0  0  0
   -1.5000    0.0000    0.0000 C   0  0  0  0  0  0  0  0  0  0  0  0
   -0.7500   -1.2990    0.0000 C   0  0  0  0  0  0  0  0  0  0  0  0
   -2.2500   -1.2990    0.0000 C   0  0  0  0  0  0  0  0  0  0  0  0
   -1.5000   -2.5981    0.0000 C   0  0  0  0  0  0  0  0  0  0  0  0
   -3.0000   -2.5981    0.0000 C   0  0  0  0  0  0  0  0  0  0  0  0
   -3.7500   -3.8971    0.0000 C   0  0  0  0  0  0  0  0  0  0  0  0
   -3.0000   -5.1962    0.0000 C   0  0  0  0  0  0  0  0  0  0  0  0
   -4.4998   -5.1699    0.0000 C   0  0  0  0  0  0  0  0  0  0  0  0
   -4.1859   -8.4107    0.0000 C   0  0  0  0  0  0  0  0  0  0  0  0
   -4.9808   -9.6828    0.0000 C   0  0  0  0  0  0  0  0  0  0  0  0
   -6.4799   -9.6304    0.0000 C   0  0  0  0  0  0  0  0  0  0  0  0
   -7.1841   -8.3060    0.0000 C   0  0  0  0  0  0  0  0  0  0  0  0
   -8.6832   -8.2536    0.0000 O   0  0  0  0  0  0  0  0  0  0  0  0
   -6.3892   -7.0339    0.0000 N   0  0  0  0  0  0  0  0  0  0  0  0
  2  1  1  1
  2  3  1  0
  3  4  1  6
  4  5  1  0
  6  5  1  6
  6  7  1  0
  7  8  1  1
  8  9  1  0
  9 10  1  0
 10 11  2  0
 11 12  1  0
 12 13  2  0
 12 14  1  0
 14 15  1  0
 15 16  1  0
 16 17  1  6
 16 18  1  0
 18 19  1  6
 19 20  1  0
 20 21  1  0
 21 22  1  6
  2 23  1  0
 23 24  1  0
 24 25  2  0
 25 26  1  0
 26 27  2  0
 26 28  1  0
 28  2  1  0
 21  3  1  0
 21  6  1  0
 18  7  1  0
 16 10  1  0
M  END
>  <assay_chembl_id>  (292) 
CHEMBL1250613

>  <assay_description>  (292) 
Antagonist activity at human androgen receptor expressed in human CV1 cells assessed as inhibition of receptor-mediated transactivation by MMTV-luciferase reporter gene assay

>  <parent_molecule_chembl_id>  (292) 
CHEMBL1253832

>  <canonical_smiles>  (292) 
C[C@@]1([C@H]2CC[C@H]3[C@@H]4CCC5=CC(=O)CC[C@]5(C)[C@H]4CC[C@@]32C)CC=CC(=O)N1

>  <standard_type>  (292) 
IC50

>  <standard_relation>  (292) 
=

>  <standard_value>  (292) 
500.0

>  <standard_units>  (292) 
nM

>  <target_pref_name>  (292) 
Androgen Receptor

>  <target_chembl_id>  (292) 
CHEMBL1871

>  <target_organism>  (292) 
Homo sapiens

>  <pchembl_median>  (292) 
5.97

$$$$
CHEMBL1253831
     RDKit          2D

 28 32  0  0  0  0  0  0  0  0999 V2000
   -5.2784   -5.6374    0.0000 C   0  0  0  0  0  0  0  0  0  0  0  0
   -4.8901   -7.0863    0.0000 C   0  0  0  0  0  0  0  0  0  0  0  0
   -3.4635   -6.6227    0.0000 C   0  0  0  0  0  0  0  0  0  0  0  0
   -2.2500   -7.5044    0.0000 C   0  0  0  0  0  0  0  0  0  0  0  0
   -1.0365   -6.6227    0.0000 C   0  0  0  0  0  0  0  0  0  0  0  0
   -1.5000   -5.1962    0.0000 C   0  0  0  0  0  0  0  0  0  0  0  0
   -0.7500   -3.8971    0.0000 C   0  0  0  0  0  0  0  0  0  0  0  0
    0.7500   -3.8971    0.0000 C   0  0  0  0  0  0  0  0  0  0  0  0
    1.5000   -2.5981    0.0000 C   0  0  0  0  0  0  0  0  0  0  0  0
    0.7500   -1.2990    0.0000 C   0  0  0  0  0  0  0  0  0  0  0  0
    1.5000    0.0000    0.0000 C   0  0  0  0  0  0  0  0  0  0  0  0
    0.7500    1.2990    0.0000 C   0  0  0  0  0  0  0  0  0  0  0  0
    1.5000    2.5981    0.0000 O   0  0  0  0  0  0  0  0  0  0  0  0
   -0.7500    1.2990    0.0000 C   0  0  0  0  0  0  0  0  0  0  0  0
   -1.5000    0.0000    0.0000 C   0  0  0  0  0  0  0  0  0  0  0  0
   -0.7500   -1.2990    0.0000 C   0  0  0  0  0  0  0  0  0  0  0  0
   -2.2500   -1.2990    0.0000 C   0  0  0  0  0  0  0  0  0  0  0  0
   -1.5000   -2.5981    0.0000 C   0  0  0  0  0  0  0  0  0  0  0  0
   -3.0000   -2.5981    0.0000 C   0  0  0  0  0  0  0  0  0  0  0  0
   -3.7500   -3.8971    0.0000 C   0  0  0  0  0  0  0  0  0  0  0  0
   -3.0000   -5.1962    0.0000 C   0  0  0  0  0  0  0  0  0  0  0  0
   -4.4998   -5.1699    0.0000 C   0  0  0  0  0  0  0  0  0  0  0  0
   -4.1859   -8.4107    0.0000 C   0  0  0  0  0  0  0  0  0  0  0  0
   -4.9808   -9.6828    0.0000 C   0  0  0  0  0  0  0  0  0  0  0  0
   -6.4799   -9.6304    0.0000 C   0  0  0  0  0  0  0  0  0  0  0  0
   -7.1841   -8.3060    0.0000 C   0  0  0  0  0  0  0  0  0  0  0  0
   -8.6832   -8.2536    0.0000 O   0  0  0  0  0  0  0  0  0  0  0  0
   -6.3892   -7.0339    0.0000 N   0  0  0  0  0  0  0  0  0  0  0  0
  2  1  1  1
  2  3  1  0
  3  4  1  6
  4  5  1  0
  6  5  1  6
  6  7  1  0
  7  8  1  1
  8  9  1  0
  9 10  2  0
 10 11  1  0
 11 12  1  0
 12 13  1  6
 12 14  1  0
 14 15  1  0
 15 16  1  0
 16 17  1  6
 16 18  1  0
 18 19  1  6
 19 20  1  0
 20 21  1  0
 21 22  1  6
  2 23  1  0
 23 24  1  0
 24 25  2  0
 25 26  1  0
 26 27  2  0
 26 28  1  0
 28  2  1  0
 21  3  1  0
 21  6  1  0
 18  7  1  0
 16 10  1  0
M  END
>  <assay_chembl_id>  (293) 
CHEMBL1250613

>  <assay_description>  (293) 
Antagonist activity at human androgen receptor expressed in human CV1 cells assessed as inhibition of receptor-mediated transactivation by MMTV-luciferase reporter gene assay

>  <parent_molecule_chembl_id>  (293) 
CHEMBL1253831

>  <canonical_smiles>  (293) 
C[C@@]1([C@H]2CC[C@H]3[C@@H]4CC=C5C[C@@H](O)CC[C@]5(C)[C@H]4CC[C@@]32C)CC=CC(=O)N1

>  <standard_type>  (293) 
IC50

>  <standard_relation>  (293) 
=

>  <standard_value>  (293) 
3000.0

>  <standard_units>  (293) 
nM

>  <target_pref_name>  (293) 
Androgen Receptor

>  <target_chembl_id>  (293) 
CHEMBL1871

>  <target_organism>  (293) 
Homo sapiens

>  <pchembl_median>  (293) 
6.41

$$$$
CHEMBL1255008
     RDKit          2D

 28 32  0  0  0  0  0  0  0  0999 V2000
   -4.4998   -5.1699    0.0000 C   0  0  0  0  0  0  0  0  0  0  0  0
   -3.0000   -5.1962    0.0000 C   0  0  0  0  0  0  0  0  0  0  0  0
   -3.7500   -3.8971    0.0000 C   0  0  0  0  0  0  0  0  0  0  0  0
   -3.0000   -2.5981    0.0000 C   0  0  0  0  0  0  0  0  0  0  0  0
   -1.5000   -2.5981    0.0000 C   0  0  0  0  0  0  0  0  0  0  0  0
   -0.7500   -3.8971    0.0000 C   0  0  0  0  0  0  0  0  0  0  0  0
    0.7500   -3.8971    0.0000 C   0  0  0  0  0  0  0  0  0  0  0  0
    1.5000   -2.5981    0.0000 C   0  0  0  0  0  0  0  0  0  0  0  0
    0.7500   -1.2990    0.0000 C   0  0  0  0  0  0  0  0  0  0  0  0
    1.5000    0.0000    0.0000 C   0  0  0  0  0  0  0  0  0  0  0  0
    0.7500    1.2990    0.0000 C   0  0  0  0  0  0  0  0  0  0  0  0
    1.5000    2.5981    0.0000 O   0  0  0  0  0  0  0  0  0  0  0  0
   -0.7500    1.2990    0.0000 C   0  0  0  0  0  0  0  0  0  0  0  0
   -1.5000    0.0000    0.0000 C   0  0  0  0  0  0  0  0  0  0  0  0
   -0.7500   -1.2990    0.0000 C   0  0  0  0  0  0  0  0  0  0  0  0
   -2.2500   -1.2990    0.0000 C   0  0  0  0  0  0  0  0  0  0  0  0
   -1.5000   -5.1962    0.0000 C   0  0  0  0  0  0  0  0  0  0  0  0
   -1.0365   -6.6227    0.0000 C   0  0  0  0  0  0  0  0  0  0  0  0
   -2.2500   -7.5044    0.0000 C   0  0  0  0  0  0  0  0  0  0  0  0
   -3.4635   -6.6227    0.0000 C   0  0  0  0  0  0  0  0  0  0  0  0
   -4.8901   -7.0863    0.0000 C   0  0  0  0  0  0  0  0  0  0  0  0
   -5.2784   -5.6374    0.0000 C   0  0  0  0  0  0  0  0  0  0  0  0
   -4.1859   -8.4107    0.0000 C   0  0  0  0  0  0  0  0  0  0  0  0
   -4.9808   -9.6828    0.0000 C   0  0  0  0  0  0  0  0  0  0  0  0
   -6.4799   -9.6304    0.0000 C   0  0  0  0  0  0  0  0  0  0  0  0
   -7.1841   -8.3060    0.0000 C   0  0  0  0  0  0  0  0  0  0  0  0
   -8.6832   -8.2536    0.0000 O   0  0  0  0  0  0  0  0  0  0  0  0
   -6.3892   -7.0339    0.0000 N   0  0  0  0  0  0  0  0  0  0  0  0
  2  1  1  6
  2  3  1  0
  3  4  1  0
  5  4  1  6
  5  6  1  0
  6  7  1  1
  7  8  1  0
  8  9  2  0
  9 10  1  0
 10 11  1  0
 11 12  2  0
 11 13  1  0
 13 14  1  0
 14 15  1  0
 15 16  1  6
  6 17  1  0
 17 18  1  6
 18 19  1  0
 20 19  1  6
 20 21  1  0
 21 22  1  6
 21 23  1  0
 23 24  1  0
 24 25  2  0
 25 26  1  0
 26 27  2  0
 26 28  1  0
 17  2  1  0
 28 21  1  0
 20  2  1  0
 15  5  1  0
 15  9  1  0
M  END
>  <assay_chembl_id>  (294) 
CHEMBL1250613

>  <assay_description>  (294) 
Antagonist activity at human androgen receptor expressed in human CV1 cells assessed as inhibition of receptor-mediated transactivation by MMTV-luciferase reporter gene assay

>  <parent_molecule_chembl_id>  (294) 
CHEMBL1255008

>  <canonical_smiles>  (294) 
C[C@]12CC[C@H]3[C@@H](CC=C4CC(=O)CC[C@@]43C)[C@@H]1CC[C@@H]2[C@@]1(C)CC=CC(=O)N1

>  <standard_type>  (294) 
IC50

>  <standard_relation>  (294) 
=

>  <standard_value>  (294) 
2000.0

>  <standard_units>  (294) 
nM

>  <target_pref_name>  (294) 
Androgen Receptor

>  <target_chembl_id>  (294) 
CHEMBL1871

>  <target_organism>  (294) 
Homo sapiens

>  <pchembl_median>  (294) 
7.5

$$$$
CHEMBL1254922
     RDKit          2D

 28 32  0  0  0  0  0  0  0  0999 V2000
   -4.4998   -5.1699    0.0000 C   0  0  0  0  0  0  0  0  0  0  0  0
   -3.0000   -5.1962    0.0000 C   0  0  0  0  0  0  0  0  0  0  0  0
   -3.7500   -3.8971    0.0000 C   0  0  0  0  0  0  0  0  0  0  0  0
   -3.0000   -2.5981    0.0000 C   0  0  0  0  0  0  0  0  0  0  0  0
   -1.5000   -2.5981    0.0000 C   0  0  0  0  0  0  0  0  0  0  0  0
   -0.7500   -3.8971    0.0000 C   0  0  0  0  0  0  0  0  0  0  0  0
    0.7500   -3.8971    0.0000 C   0  0  0  0  0  0  0  0  0  0  0  0
    1.5000   -2.5981    0.0000 C   0  0  0  0  0  0  0  0  0  0  0  0
    0.7500   -1.2990    0.0000 C   0  0  0  0  0  0  0  0  0  0  0  0
    1.5000    0.0000    0.0000 C   0  0  0  0  0  0  0  0  0  0  0  0
    0.7500    1.2990    0.0000 C   0  0  0  0  0  0  0  0  0  0  0  0
    1.5000    2.5981    0.0000 O   0  0  0  0  0  0  0  0  0  0  0  0
   -0.7500    1.2990    0.0000 C   0  0  0  0  0  0  0  0  0  0  0  0
   -1.5000    0.0000    0.0000 C   0  0  0  0  0  0  0  0  0  0  0  0
   -0.7500   -1.2990    0.0000 C   0  0  0  0  0  0  0  0  0  0  0  0
   -2.2500   -1.2990    0.0000 C   0  0  0  0  0  0  0  0  0  0  0  0
   -1.5000   -5.1962    0.0000 C   0  0  0  0  0  0  0  0  0  0  0  0
   -1.0365   -6.6227    0.0000 C   0  0  0  0  0  0  0  0  0  0  0  0
   -2.2500   -7.5044    0.0000 C   0  0  0  0  0  0  0  0  0  0  0  0
   -3.4635   -6.6227    0.0000 C   0  0  0  0  0  0  0  0  0  0  0  0
   -4.8901   -7.0863    0.0000 C   0  0  0  0  0  0  0  0  0  0  0  0
   -5.2784   -5.6374    0.0000 C   0  0  0  0  0  0  0  0  0  0  0  0
   -4.1859   -8.4107    0.0000 C   0  0  0  0  0  0  0  0  0  0  0  0
   -4.9808   -9.6828    0.0000 C   0  0  0  0  0  0  0  0  0  0  0  0
   -6.4799   -9.6304    0.0000 C   0  0  0  0  0  0  0  0  0  0  0  0
   -7.1841   -8.3060    0.0000 C   0  0  0  0  0  0  0  0  0  0  0  0
   -8.6832   -8.2536    0.0000 O   0  0  0  0  0  0  0  0  0  0  0  0
   -6.3892   -7.0339    0.0000 N   0  0  0  0  0  0  0  0  0  0  0  0
  2  1  1  6
  2  3  1  0
  3  4  1  0
  5  4  1  6
  5  6  1  0
  6  7  1  1
  7  8  1  0
  8  9  2  0
  9 10  1  0
 10 11  1  0
 11 12  1  6
 11 13  1  0
 13 14  1  0
 14 15  1  0
 15 16  1  6
  6 17  1  0
 17 18  1  6
 18 19  1  0
 20 19  1  6
 20 21  1  0
 21 22  1  6
 21 23  1  0
 23 24  1  0
 24 25  2  0
 25 26  1  0
 26 27  2  0
 26 28  1  0
 17  2  1  0
 28 21  1  0
 20  2  1  0
 15  5  1  0
 15  9  1  0
M  END
>  <assay_chembl_id>  (295) 
CHEMBL1250613

>  <assay_description>  (295) 
Antagonist activity at human androgen receptor expressed in human CV1 cells assessed as inhibition of receptor-mediated transactivation by MMTV-luciferase reporter gene assay

>  <parent_molecule_chembl_id>  (295) 
CHEMBL1254922

>  <canonical_smiles>  (295) 
C[C@]12CC[C@H]3[C@@H](CC=C4C[C@@H](O)CC[C@@]43C)[C@@H]1CC[C@@H]2[C@@]1(C)CC=CC(=O)N1

>  <standard_type>  (295) 
IC50

>  <standard_relation>  (295) 
=

>  <standard_value>  (295) 
2000.0

>  <standard_units>  (295) 
nM

>  <target_pref_name>  (295) 
Androgen Receptor

>  <target_chembl_id>  (295) 
CHEMBL1871

>  <target_organism>  (295) 
Homo sapiens

>  <pchembl_median>  (295) 
7.79

$$$$
CHEMBL591628
     RDKit          2D

 23 26  0  0  0  0  0  0  0  0999 V2000
   -1.5000  -10.3923    0.0000 C   0  0  0  0  0  0  0  0  0  0  0  0
   -0.7500   -9.0933    0.0000 C   0  0  0  0  0  0  0  0  0  0  0  0
    0.7500   -9.0933    0.0000 O   0  0  0  0  0  0  0  0  0  0  0  0
    1.5000   -7.7942    0.0000 C   0  0  0  0  0  0  0  0  0  0  0  0
    0.7500   -6.4952    0.0000 C   0  0  0  0  0  0  0  0  0  0  0  0
    1.5000   -5.1962    0.0000 C   0  0  0  0  0  0  0  0  0  0  0  0
    0.7500   -3.8971    0.0000 C   0  0  0  0  0  0  0  0  0  0  0  0
    1.5000   -2.5981    0.0000 N   0  0  0  0  0  0  0  0  0  0  0  0
    0.7500   -1.2990    0.0000 C   0  0  0  0  0  0  0  0  0  0  0  0
    1.5000    0.0000    0.0000 C   0  0  0  0  0  0  0  0  0  0  0  0
    0.7500    1.2990    0.0000 C   0  0  0  0  0  0  0  0  0  0  0  0
   -0.7500    1.2990    0.0000 C   0  0  0  0  0  0  0  0  0  0  0  0
   -1.5000    0.0000    0.0000 C   0  0  0  0  0  0  0  0  0  0  0  0
   -3.0000    0.0000    0.0000 C   0  0  0  0  0  0  0  0  0  0  0  0
   -3.7500   -1.2990    0.0000 C   0  0  0  0  0  0  0  0  0  0  0  0
   -3.0000   -2.5981    0.0000 C   0  0  0  0  0  0  0  0  0  0  0  0
   -1.5000   -2.5981    0.0000 C   0  0  0  0  0  0  0  0  0  0  0  0
   -0.7500   -1.2990    0.0000 C   0  0  0  0  0  0  0  0  0  0  0  0
   -0.7500   -3.8971    0.0000 N   0  0  0  0  0  0  0  0  0  0  0  0
    3.0000   -5.1962    0.0000 C   0  0  0  0  0  0  0  0  0  0  0  0
    3.7500   -6.4952    0.0000 C   0  0  0  0  0  0  0  0  0  0  0  0
    3.0000   -7.7942    0.0000 C   0  0  0  0  0  0  0  0  0  0  0  0
    3.7500   -9.0933    0.0000 O   0  0  0  0  0  0  0  0  0  0  0  0
  1  2  1  0
  2  3  1  0
  3  4  1  0
  4  5  2  0
  5  6  1  0
  6  7  1  0
  7  8  1  0
  8  9  1  0
  9 10  2  0
 10 11  1  0
 11 12  2  0
 12 13  1  0
 13 14  2  0
 14 15  1  0
 15 16  2  0
 16 17  1  0
 17 18  2  0
 17 19  1  0
  6 20  2  0
 20 21  1  0
 21 22  2  0
 22 23  1  0
 22  4  1  0
 19  7  1  0
 18  9  1  0
 18 13  1  0
M  END
>  <assay_chembl_id>  (296) 
CHEMBL1826238

>  <assay_description>  (296) 
Displacement of SRC2-3 peptide from human AR ligand binding site expressed in Escherichia coli BL21 by AF2 FP assay

>  <parent_molecule_chembl_id>  (296) 
CHEMBL591628

>  <canonical_smiles>  (296) 
CCOc1cc(C2Nc3cccc4cccc(c34)N2)ccc1O

>  <standard_type>  (296) 
IC50

>  <standard_relation>  (296) 
=

>  <standard_value>  (296) 
31500.0

>  <standard_units>  (296) 
nM

>  <target_pref_name>  (296) 
Androgen Receptor

>  <target_chembl_id>  (296) 
CHEMBL1871

>  <target_organism>  (296) 
Homo sapiens

>  <pchembl_median>  (296) 
7.44

$$$$
CHEMBL1527972
     RDKit          2D

 20 23  0  0  0  0  0  0  0  0999 V2000
    3.7500   -9.0933    0.0000 O   0  0  0  0  0  0  0  0  0  0  0  0
    3.0000   -7.7942    0.0000 C   0  0  0  0  0  0  0  0  0  0  0  0
    1.5000   -7.7942    0.0000 C   0  0  0  0  0  0  0  0  0  0  0  0
    0.7500   -6.4952    0.0000 C   0  0  0  0  0  0  0  0  0  0  0  0
    1.5000   -5.1962    0.0000 C   0  0  0  0  0  0  0  0  0  0  0  0
    0.7500   -3.8971    0.0000 C   0  0  0  0  0  0  0  0  0  0  0  0
    1.5000   -2.5981    0.0000 N   0  0  0  0  0  0  0  0  0  0  0  0
    0.7500   -1.2990    0.0000 C   0  0  0  0  0  0  0  0  0  0  0  0
    1.5000    0.0000    0.0000 C   0  0  0  0  0  0  0  0  0  0  0  0
    0.7500    1.2990    0.0000 C   0  0  0  0  0  0  0  0  0  0  0  0
   -0.7500    1.2990    0.0000 C   0  0  0  0  0  0  0  0  0  0  0  0
   -1.5000    0.0000    0.0000 C   0  0  0  0  0  0  0  0  0  0  0  0
   -3.0000    0.0000    0.0000 C   0  0  0  0  0  0  0  0  0  0  0  0
   -3.7500   -1.2990    0.0000 C   0  0  0  0  0  0  0  0  0  0  0  0
   -3.0000   -2.5981    0.0000 C   0  0  0  0  0  0  0  0  0  0  0  0
   -1.5000   -2.5981    0.0000 C   0  0  0  0  0  0  0  0  0  0  0  0
   -0.7500   -1.2990    0.0000 C   0  0  0  0  0  0  0  0  0  0  0  0
   -0.7500   -3.8971    0.0000 N   0  0  0  0  0  0  0  0  0  0  0  0
    3.0000   -5.1962    0.0000 C   0  0  0  0  0  0  0  0  0  0  0  0
    3.7500   -6.4952    0.0000 C   0  0  0  0  0  0  0  0  0  0  0  0
  1  2  1  0
  2  3  2  0
  3  4  1  0
  4  5  2  0
  5  6  1  0
  6  7  1  0
  7  8  1  0
  8  9  2  0
  9 10  1  0
 10 11  2  0
 11 12  1  0
 12 13  2  0
 13 14  1  0
 14 15  2  0
 15 16  1  0
 16 17  2  0
 16 18  1  0
  5 19  1  0
 19 20  2  0
 20  2  1  0
 18  6  1  0
 17  8  1  0
 17 12  1  0
M  END
>  <assay_chembl_id>  (297) 
CHEMBL1826238

>  <assay_description>  (297) 
Displacement of SRC2-3 peptide from human AR ligand binding site expressed in Escherichia coli BL21 by AF2 FP assay

>  <parent_molecule_chembl_id>  (297) 
CHEMBL1527972

>  <canonical_smiles>  (297) 
Oc1ccc(C2Nc3cccc4cccc(c34)N2)cc1

>  <standard_type>  (297) 
IC50

>  <standard_relation>  (297) 
=

>  <standard_value>  (297) 
30700.0

>  <standard_units>  (297) 
nM

>  <target_pref_name>  (297) 
Androgen Receptor

>  <target_chembl_id>  (297) 
CHEMBL1871

>  <target_organism>  (297) 
Homo sapiens

>  <pchembl_median>  (297) 
6.97

$$$$
CHEMBL1302748
     RDKit          2D

 22 25  0  0  0  0  0  0  0  0999 V2000
   -0.7500   -9.0933    0.0000 C   0  0  0  0  0  0  0  0  0  0  0  0
    0.7500   -9.0933    0.0000 O   0  0  0  0  0  0  0  0  0  0  0  0
    1.5000   -7.7942    0.0000 C   0  0  0  0  0  0  0  0  0  0  0  0
    0.7500   -6.4952    0.0000 C   0  0  0  0  0  0  0  0  0  0  0  0
    1.5000   -5.1962    0.0000 C   0  0  0  0  0  0  0  0  0  0  0  0
    0.7500   -3.8971    0.0000 C   0  0  0  0  0  0  0  0  0  0  0  0
    1.5000   -2.5981    0.0000 N   0  0  0  0  0  0  0  0  0  0  0  0
    0.7500   -1.2990    0.0000 C   0  0  0  0  0  0  0  0  0  0  0  0
    1.5000    0.0000    0.0000 C   0  0  0  0  0  0  0  0  0  0  0  0
    0.7500    1.2990    0.0000 C   0  0  0  0  0  0  0  0  0  0  0  0
   -0.7500    1.2990    0.0000 C   0  0  0  0  0  0  0  0  0  0  0  0
   -1.5000    0.0000    0.0000 C   0  0  0  0  0  0  0  0  0  0  0  0
   -3.0000    0.0000    0.0000 C   0  0  0  0  0  0  0  0  0  0  0  0
   -3.7500   -1.2990    0.0000 C   0  0  0  0  0  0  0  0  0  0  0  0
   -3.0000   -2.5981    0.0000 C   0  0  0  0  0  0  0  0  0  0  0  0
   -1.5000   -2.5981    0.0000 C   0  0  0  0  0  0  0  0  0  0  0  0
   -0.7500   -1.2990    0.0000 C   0  0  0  0  0  0  0  0  0  0  0  0
   -0.7500   -3.8971    0.0000 N   0  0  0  0  0  0  0  0  0  0  0  0
    3.0000   -5.1962    0.0000 C   0  0  0  0  0  0  0  0  0  0  0  0
    3.7500   -6.4952    0.0000 C   0  0  0  0  0  0  0  0  0  0  0  0
    3.0000   -7.7942    0.0000 C   0  0  0  0  0  0  0  0  0  0  0  0
    3.7500   -9.0933    0.0000 O   0  0  0  0  0  0  0  0  0  0  0  0
  1  2  1  0
  2  3  1  0
  3  4  2  0
  4  5  1  0
  5  6  1  0
  6  7  1  0
  7  8  1  0
  8  9  2  0
  9 10  1  0
 10 11  2  0
 11 12  1  0
 12 13  2  0
 13 14  1  0
 14 15  2  0
 15 16  1  0
 16 17  2  0
 16 18  1  0
  5 19  2  0
 19 20  1  0
 20 21  2  0
 21 22  1  0
 21  3  1  0
 18  6  1  0
 17  8  1  0
 17 12  1  0
M  END
>  <assay_chembl_id>  (298) 
CHEMBL1826238

>  <assay_description>  (298) 
Displacement of SRC2-3 peptide from human AR ligand binding site expressed in Escherichia coli BL21 by AF2 FP assay

>  <parent_molecule_chembl_id>  (298) 
CHEMBL1302748

>  <canonical_smiles>  (298) 
COc1cc(C2Nc3cccc4cccc(c34)N2)ccc1O

>  <standard_type>  (298) 
IC50

>  <standard_relation>  (298) 
=

>  <standard_value>  (298) 
32900.0

>  <standard_units>  (298) 
nM

>  <target_pref_name>  (298) 
Androgen Receptor

>  <target_chembl_id>  (298) 
CHEMBL1871

>  <target_organism>  (298) 
Homo sapiens

>  <pchembl_median>  (298) 
7.25

$$$$
CHEMBL1822155
     RDKit          2D

 22 25  0  0  0  0  0  0  0  0999 V2000
    3.0000  -10.3923    0.0000 C   0  0  0  0  0  0  0  0  0  0  0  0
    3.7500   -9.0933    0.0000 O   0  0  0  0  0  0  0  0  0  0  0  0
    3.0000   -7.7942    0.0000 C   0  0  0  0  0  0  0  0  0  0  0  0
    1.5000   -7.7942    0.0000 C   0  0  0  0  0  0  0  0  0  0  0  0
    0.7500   -6.4952    0.0000 C   0  0  0  0  0  0  0  0  0  0  0  0
    1.5000   -5.1962    0.0000 C   0  0  0  0  0  0  0  0  0  0  0  0
    0.7500   -3.8971    0.0000 C   0  0  0  0  0  0  0  0  0  0  0  0
    1.5000   -2.5981    0.0000 N   0  0  0  0  0  0  0  0  0  0  0  0
    0.7500   -1.2990    0.0000 C   0  0  0  0  0  0  0  0  0  0  0  0
    1.5000    0.0000    0.0000 C   0  0  0  0  0  0  0  0  0  0  0  0
    0.7500    1.2990    0.0000 C   0  0  0  0  0  0  0  0  0  0  0  0
   -0.7500    1.2990    0.0000 C   0  0  0  0  0  0  0  0  0  0  0  0
   -1.5000    0.0000    0.0000 C   0  0  0  0  0  0  0  0  0  0  0  0
   -3.0000    0.0000    0.0000 C   0  0  0  0  0  0  0  0  0  0  0  0
   -3.7500   -1.2990    0.0000 C   0  0  0  0  0  0  0  0  0  0  0  0
   -3.0000   -2.5981    0.0000 C   0  0  0  0  0  0  0  0  0  0  0  0
   -1.5000   -2.5981    0.0000 C   0  0  0  0  0  0  0  0  0  0  0  0
   -0.7500   -1.2990    0.0000 C   0  0  0  0  0  0  0  0  0  0  0  0
   -0.7500   -3.8971    0.0000 N   0  0  0  0  0  0  0  0  0  0  0  0
    3.0000   -5.1962    0.0000 C   0  0  0  0  0  0  0  0  0  0  0  0
    3.7500   -6.4952    0.0000 C   0  0  0  0  0  0  0  0  0  0  0  0
    5.2500   -6.4952    0.0000 O   0  0  0  0  0  0  0  0  0  0  0  0
  1  2  1  0
  2  3  1  0
  3  4  2  0
  4  5  1  0
  5  6  2  0
  6  7  1  0
  7  8  1  0
  8  9  1  0
  9 10  2  0
 10 11  1  0
 11 12  2  0
 12 13  1  0
 13 14  2  0
 14 15  1  0
 15 16  2  0
 16 17  1  0
 17 18  2  0
 17 19  1  0
  6 20  1  0
 20 21  2  0
 21 22  1  0
 21  3  1  0
 19  7  1  0
 18  9  1  0
 18 13  1  0
M  END
>  <assay_chembl_id>  (299) 
CHEMBL1826238

>  <assay_description>  (299) 
Displacement of SRC2-3 peptide from human AR ligand binding site expressed in Escherichia coli BL21 by AF2 FP assay

>  <parent_molecule_chembl_id>  (299) 
CHEMBL1822155

>  <canonical_smiles>  (299) 
COc1ccc(C2Nc3cccc4cccc(c34)N2)cc1O

>  <standard_type>  (299) 
IC50

>  <standard_relation>  (299) 
=

>  <standard_value>  (299) 
8200.0

>  <standard_units>  (299) 
nM

>  <target_pref_name>  (299) 
Androgen Receptor

>  <target_chembl_id>  (299) 
CHEMBL1871

>  <target_organism>  (299) 
Homo sapiens

>  <pchembl_median>  (299) 
8.62

$$$$
CHEMBL1822156
     RDKit          2D

 21 24  0  0  0  0  0  0  0  0999 V2000
    3.7500   -9.0933    0.0000 O   0  0  0  0  0  0  0  0  0  0  0  0
    3.0000   -7.7942    0.0000 C   0  0  0  0  0  0  0  0  0  0  0  0
    1.5000   -7.7942    0.0000 C   0  0  0  0  0  0  0  0  0  0  0  0
    0.7500   -6.4952    0.0000 C   0  0  0  0  0  0  0  0  0  0  0  0
    1.5000   -5.1962    0.0000 C   0  0  0  0  0  0  0  0  0  0  0  0
    0.7500   -3.8971    0.0000 C   0  0  0  0  0  0  0  0  0  0  0  0
    1.5000   -2.5981    0.0000 N   0  0  0  0  0  0  0  0  0  0  0  0
    0.7500   -1.2990    0.0000 C   0  0  0  0  0  0  0  0  0  0  0  0
    1.5000    0.0000    0.0000 C   0  0  0  0  0  0  0  0  0  0  0  0
    0.7500    1.2990    0.0000 C   0  0  0  0  0  0  0  0  0  0  0  0
   -0.7500    1.2990    0.0000 C   0  0  0  0  0  0  0  0  0  0  0  0
   -1.5000    0.0000    0.0000 C   0  0  0  0  0  0  0  0  0  0  0  0
   -3.0000    0.0000    0.0000 C   0  0  0  0  0  0  0  0  0  0  0  0
   -3.7500   -1.2990    0.0000 C   0  0  0  0  0  0  0  0  0  0  0  0
   -3.0000   -2.5981    0.0000 C   0  0  0  0  0  0  0  0  0  0  0  0
   -1.5000   -2.5981    0.0000 C   0  0  0  0  0  0  0  0  0  0  0  0
   -0.7500   -1.2990    0.0000 C   0  0  0  0  0  0  0  0  0  0  0  0
   -0.7500   -3.8971    0.0000 N   0  0  0  0  0  0  0  0  0  0  0  0
    3.0000   -5.1962    0.0000 C   0  0  0  0  0  0  0  0  0  0  0  0
    3.7500   -6.4952    0.0000 C   0  0  0  0  0  0  0  0  0  0  0  0
    5.2500   -6.4952    0.0000 O   0  0  0  0  0  0  0  0  0  0  0  0
  1  2  1  0
  2  3  2  0
  3  4  1  0
  4  5  2  0
  5  6  1  0
  6  7  1  0
  7  8  1  0
  8  9  2  0
  9 10  1  0
 10 11  2  0
 11 12  1  0
 12 13  2  0
 13 14  1  0
 14 15  2  0
 15 16  1  0
 16 17  2  0
 16 18  1  0
  5 19  1  0
 19 20  2  0
 20 21  1  0
 20  2  1  0
 18  6  1  0
 17  8  1  0
 17 12  1  0
M  END
>  <assay_chembl_id>  (300) 
CHEMBL1826238

>  <assay_description>  (300) 
Displacement of SRC2-3 peptide from human AR ligand binding site expressed in Escherichia coli BL21 by AF2 FP assay

>  <parent_molecule_chembl_id>  (300) 
CHEMBL1822156

>  <canonical_smiles>  (300) 
Oc1ccc(C2Nc3cccc4cccc(c34)N2)cc1O

>  <standard_type>  (300) 
IC50

>  <standard_relation>  (300) 
=

>  <standard_value>  (300) 
30580.0

>  <standard_units>  (300) 
nM

>  <target_pref_name>  (300) 
Androgen Receptor

>  <target_chembl_id>  (300) 
CHEMBL1871

>  <target_organism>  (300) 
Homo sapiens

>  <pchembl_median>  (300) 
7.48

$$$$
CHEMBL1822157
     RDKit          2D

 25 27  0  0  0  0  0  0  0  0999 V2000
    4.6740   -4.8322    0.0000 C   0  0  0  0  0  0  0  0  0  0  0  0
    3.3037   -4.2221    0.0000 C   0  0  0  0  0  0  0  0  0  0  0  0
    2.9918   -2.7549    0.0000 N   0  0  0  0  0  0  0  0  0  0  0  0
    1.5000   -2.5981    0.0000 N   0  0  0  0  0  0  0  0  0  0  0  0
    0.7500   -1.2990    0.0000 C   0  0  0  0  0  0  0  0  0  0  0  0
    1.5000    0.0000    0.0000 C   0  0  0  0  0  0  0  0  0  0  0  0
    0.7500    1.2990    0.0000 C   0  0  0  0  0  0  0  0  0  0  0  0
   -0.7500    1.2990    0.0000 C   0  0  0  0  0  0  0  0  0  0  0  0
   -1.5000    0.0000    0.0000 C   0  0  0  0  0  0  0  0  0  0  0  0
   -0.7500   -1.2990    0.0000 C   0  0  0  0  0  0  0  0  0  0  0  0
    0.8899   -3.9684    0.0000 C   0  0  0  0  0  0  0  0  0  0  0  0
   -0.5773   -4.2803    0.0000 O   0  0  0  0  0  0  0  0  0  0  0  0
    2.0046   -4.9721    0.0000 C   0  0  0  0  0  0  0  0  0  0  0  0
    1.8478   -6.4639    0.0000 N   0  0  0  0  0  0  0  0  0  0  0  0
    0.4775   -7.0740    0.0000 N   0  0  0  0  0  0  0  0  0  0  0  0
    0.3207   -8.5658    0.0000 C   0  0  0  0  0  0  0  0  0  0  0  0
   -1.0496   -9.1759    0.0000 C   0  0  0  0  0  0  0  0  0  0  0  0
   -1.2064  -10.6676    0.0000 C   0  0  0  0  0  0  0  0  0  0  0  0
    0.0071  -11.5493    0.0000 C   0  0  0  0  0  0  0  0  0  0  0  0
   -0.1497  -13.0411    0.0000 C   0  0  0  0  0  0  0  0  0  0  0  0
    1.0639  -13.9228    0.0000 O   0  0  0  0  0  0  0  0  0  0  0  0
   -1.5200  -13.6512    0.0000 O   0  0  0  0  0  0  0  0  0  0  0  0
    1.3774  -10.9392    0.0000 C   0  0  0  0  0  0  0  0  0  0  0  0
    2.5910  -11.8209    0.0000 O   0  0  0  0  0  0  0  0  0  0  0  0
    1.5342   -9.4474    0.0000 C   0  0  0  0  0  0  0  0  0  0  0  0
  1  2  1  0
  2  3  2  0
  3  4  1  0
  4  5  1  0
  5  6  2  0
  6  7  1  0
  7  8  2  0
  8  9  1  0
  9 10  2  0
  4 11  1  0
 11 12  2  0
 11 13  1  0
 13 14  2  0
 14 15  1  0
 15 16  1  0
 16 17  2  0
 17 18  1  0
 18 19  2  0
 19 20  1  0
 20 21  2  0
 20 22  1  0
 19 23  1  0
 23 24  1  0
 23 25  2  0
 13  2  1  0
 25 16  1  0
 10  5  1  0
M  END
>  <assay_chembl_id>  (301) 
CHEMBL1826238

>  <assay_description>  (301) 
Displacement of SRC2-3 peptide from human AR ligand binding site expressed in Escherichia coli BL21 by AF2 FP assay

>  <parent_molecule_chembl_id>  (301) 
CHEMBL1822157

>  <canonical_smiles>  (301) 
CC1=NN(c2ccccc2)C(=O)/C1=N\Nc1ccc(C(=O)O)c(O)c1

>  <standard_type>  (301) 
IC50

>  <standard_relation>  (301) 
=

>  <standard_value>  (301) 
26000.0

>  <standard_units>  (301) 
nM

>  <target_pref_name>  (301) 
Androgen Receptor

>  <target_chembl_id>  (301) 
CHEMBL1871

>  <target_organism>  (301) 
Homo sapiens

>  <pchembl_median>  (301) 
6.84

$$$$
CHEMBL1835832
     RDKit          2D

 21 23  0  0  0  0  0  0  0  0999 V2000
    3.7500   -6.4952    0.0000 C   0  0  0  0  0  0  0  0  0  0  0  0
    3.0000   -5.1962    0.0000 C   0  0  0  0  0  0  0  0  0  0  0  0
    1.5000   -5.1962    0.0000 N   0  0  0  0  0  0  0  0  0  0  0  0
    0.7500   -6.4952    0.0000 C   0  0  0  0  0  0  0  0  0  0  0  0
    1.5000   -7.7942    0.0000 C   0  0  0  0  0  0  0  0  0  0  0  0
    0.7500   -3.8971    0.0000 C   0  0  0  0  0  0  0  0  0  0  0  0
    1.5000   -2.5981    0.0000 C   0  0  0  0  0  0  0  0  0  0  0  0
    0.7500   -1.2990    0.0000 C   0  0  0  0  0  0  0  0  0  0  0  0
    1.5000    0.0000    0.0000 O   0  0  0  0  0  0  0  0  0  0  0  0
    0.7500    1.2990    0.0000 C   0  0  0  0  0  0  0  0  0  0  0  0
    1.5000    2.5981    0.0000 O   0  0  0  0  0  0  0  0  0  0  0  0
   -0.7500    1.2990    0.0000 C   0  0  0  0  0  0  0  0  0  0  0  0
   -1.5000    0.0000    0.0000 C   0  0  0  0  0  0  0  0  0  0  0  0
   -0.7500   -1.2990    0.0000 C   0  0  0  0  0  0  0  0  0  0  0  0
   -1.5000   -2.5981    0.0000 C   0  0  0  0  0  0  0  0  0  0  0  0
   -0.7500   -3.8971    0.0000 C   0  0  0  0  0  0  0  0  0  0  0  0
   -1.5000   -5.1962    0.0000 C   0  0  0  0  0  0  0  0  0  0  0  0
   -0.8899   -6.5665    0.0000 C   0  0  0  0  0  0  0  0  0  0  0  0
   -2.0046   -7.5702    0.0000 C   0  0  0  0  0  0  0  0  0  0  0  0
   -3.3037   -6.8202    0.0000 C   0  0  0  0  0  0  0  0  0  0  0  0
   -2.9918   -5.3529    0.0000 S   0  0  0  0  0  0  0  0  0  0  0  0
  1  2  1  0
  2  3  1  0
  3  4  1  0
  4  5  1  0
  3  6  1  0
  6  7  2  0
  7  8  1  0
  8  9  1  0
  9 10  1  0
 10 11  2  0
 10 12  1  0
 12 13  2  0
 13 14  1  0
 14 15  1  0
 15 16  2  0
 16 17  1  0
 17 18  2  0
 18 19  1  0
 19 20  2  0
 20 21  1  0
 16  6  1  0
 21 17  1  0
 14  8  2  0
M  END
>  <assay_chembl_id>  (302) 
CHEMBL1838302

>  <assay_description>  (302) 
Displacement of [3H]DHT from human recombinant androgen receptor-LBD expressed in Escherichia coli after 18 hrs by liquid scintillation counting

>  <parent_molecule_chembl_id>  (302) 
CHEMBL1835832

>  <canonical_smiles>  (302) 
CCN(CC)c1cc2oc(=O)ccc2cc1-c1cccs1

>  <standard_type>  (302) 
IC50

>  <standard_relation>  (302) 
=

>  <standard_value>  (302) 
9700.0

>  <standard_units>  (302) 
nM

>  <target_pref_name>  (302) 
Androgen Receptor

>  <target_chembl_id>  (302) 
CHEMBL1871

>  <target_organism>  (302) 
Homo sapiens

>  <pchembl_median>  (302) 
6.26

$$$$
CHEMBL1934427
     RDKit          2D

 21 22  0  0  0  0  0  0  0  0999 V2000
   -2.9716   -7.4453    0.0000 C   0  0  0  0  0  0  0  0  0  0  0  0
   -2.5081   -6.0187    0.0000 C   0  0  0  0  0  0  0  0  0  0  0  0
   -1.0409   -5.7068    0.0000 O   0  0  0  0  0  0  0  0  0  0  0  0
   -0.5773   -4.2803    0.0000 C   0  0  0  0  0  0  0  0  0  0  0  0
   -1.5810   -3.1655    0.0000 O   0  0  0  0  0  0  0  0  0  0  0  0
    0.8899   -3.9684    0.0000 C   0  0  0  0  0  0  0  0  0  0  0  0
    2.0046   -4.9721    0.0000 C   0  0  0  0  0  0  0  0  0  0  0  0
    1.8478   -6.4639    0.0000 C   0  0  0  0  0  0  0  0  0  0  0  0
    3.3037   -4.2221    0.0000 N   0  0  0  0  0  0  0  0  0  0  0  0
    2.9918   -2.7549    0.0000 C   0  0  0  0  0  0  0  0  0  0  0  0
    3.9955   -1.6402    0.0000 C   0  0  0  0  0  0  0  0  0  0  0  0
    1.5000   -2.5981    0.0000 C   0  0  0  0  0  0  0  0  0  0  0  0
    0.7500   -1.2990    0.0000 C   0  0  0  0  0  0  0  0  0  0  0  0
    1.5000    0.0000    0.0000 C   0  0  0  0  0  0  0  0  0  0  0  0
    0.7500    1.2990    0.0000 C   0  0  0  0  0  0  0  0  0  0  0  0
   -0.7500    1.2990    0.0000 C   0  0  0  0  0  0  0  0  0  0  0  0
   -1.5000    2.5981    0.0000 N   0  0  0  0  0  4  0  0  0  0  0  0
   -3.0000    2.5981    0.0000 O   0  0  0  0  0  0  0  0  0  0  0  0
   -0.7500    3.8971    0.0000 O   0  0  0  0  0  1  0  0  0  0  0  0
   -1.5000    0.0000    0.0000 C   0  0  0  0  0  0  0  0  0  0  0  0
   -0.7500   -1.2990    0.0000 C   0  0  0  0  0  0  0  0  0  0  0  0
  1  2  1  0
  2  3  1  0
  3  4  1  0
  4  5  2  0
  4  6  1  0
  6  7  2  0
  7  8  1  0
  7  9  1  0
  9 10  1  0
 10 11  1  0
 10 12  2  0
 12 13  1  0
 13 14  2  0
 14 15  1  0
 15 16  2  0
 16 17  1  0
 17 18  2  0
 17 19  1  0
 16 20  1  0
 20 21  2  0
 12  6  1  0
 21 13  1  0
M  CHG  2  17   1  19  -1
M  END
>  <assay_chembl_id>  (303) 
CHEMBL1937839

>  <assay_description>  (303) 
Displacement of [17-alpha-methyl-3H]-mibolerone from human androgen receptor expressed in HEK293 derived FreeStyle293F cells after 3 hrs

>  <parent_molecule_chembl_id>  (303) 
CHEMBL1934427

>  <canonical_smiles>  (303) 
CCOC(=O)c1c(C)[nH]c(C)c1-c1ccc([N+](=O)[O-])cc1

>  <standard_type>  (303) 
IC50

>  <standard_relation>  (303) 
=

>  <standard_value>  (303) 
22.0

>  <standard_units>  (303) 
nM

>  <target_pref_name>  (303) 
Androgen Receptor

>  <target_chembl_id>  (303) 
CHEMBL1871

>  <target_organism>  (303) 
Homo sapiens

>  <pchembl_median>  (303) 
5.59

$$$$
CHEMBL1934428
     RDKit          2D

 22 23  0  0  0  0  0  0  0  0999 V2000
    7.9336   -1.1492    0.0000 C   0  0  0  0  0  0  0  0  0  0  0  0
    6.4664   -0.8373    0.0000 C   0  0  0  0  0  0  0  0  0  0  0  0
    5.4627   -1.9520    0.0000 O   0  0  0  0  0  0  0  0  0  0  0  0
    3.9955   -1.6402    0.0000 C   0  0  0  0  0  0  0  0  0  0  0  0
    3.5320   -0.2136    0.0000 O   0  0  0  0  0  0  0  0  0  0  0  0
    2.9918   -2.7549    0.0000 C   0  0  0  0  0  0  0  0  0  0  0  0
    1.5000   -2.5981    0.0000 C   0  0  0  0  0  0  0  0  0  0  0  0
    0.7500   -1.2990    0.0000 C   0  0  0  0  0  0  0  0  0  0  0  0
    1.5000    0.0000    0.0000 C   0  0  0  0  0  0  0  0  0  0  0  0
    0.7500    1.2990    0.0000 C   0  0  0  0  0  0  0  0  0  0  0  0
   -0.7500    1.2990    0.0000 C   0  0  0  0  0  0  0  0  0  0  0  0
   -1.5000    2.5981    0.0000 N   0  0  0  0  0  4  0  0  0  0  0  0
   -3.0000    2.5981    0.0000 O   0  0  0  0  0  0  0  0  0  0  0  0
   -0.7500    3.8971    0.0000 O   0  0  0  0  0  1  0  0  0  0  0  0
   -1.5000    0.0000    0.0000 C   0  0  0  0  0  0  0  0  0  0  0  0
   -0.7500   -1.2990    0.0000 C   0  0  0  0  0  0  0  0  0  0  0  0
    0.8899   -3.9684    0.0000 C   0  0  0  0  0  0  0  0  0  0  0  0
   -0.5773   -4.2803    0.0000 C   0  0  0  0  0  0  0  0  0  0  0  0
    2.0046   -4.9721    0.0000 N   0  0  0  0  0  0  0  0  0  0  0  0
    1.8478   -6.4639    0.0000 C   0  0  0  0  0  0  0  0  0  0  0  0
    3.3037   -4.2221    0.0000 C   0  0  0  0  0  0  0  0  0  0  0  0
    4.6740   -4.8322    0.0000 C   0  0  0  0  0  0  0  0  0  0  0  0
  1  2  1  0
  2  3  1  0
  3  4  1  0
  4  5  2  0
  4  6  1  0
  6  7  1  0
  7  8  1  0
  8  9  2  0
  9 10  1  0
 10 11  2  0
 11 12  1  0
 12 13  2  0
 12 14  1  0
 11 15  1  0
 15 16  2  0
  7 17  2  0
 17 18  1  0
 17 19  1  0
 19 20  1  0
 19 21  1  0
 21 22  1  0
 21  6  2  0
 16  8  1  0
M  CHG  2  12   1  14  -1
M  END
>  <assay_chembl_id>  (304) 
CHEMBL1937839

>  <assay_description>  (304) 
Displacement of [17-alpha-methyl-3H]-mibolerone from human androgen receptor expressed in HEK293 derived FreeStyle293F cells after 3 hrs

>  <parent_molecule_chembl_id>  (304) 
CHEMBL1934428

>  <canonical_smiles>  (304) 
CCOC(=O)c1c(-c2ccc([N+](=O)[O-])cc2)c(C)n(C)c1C

>  <standard_type>  (304) 
IC50

>  <standard_relation>  (304) 
=

>  <standard_value>  (304) 
47.0

>  <standard_units>  (304) 
nM

>  <target_pref_name>  (304) 
Androgen Receptor

>  <target_chembl_id>  (304) 
CHEMBL1871

>  <target_organism>  (304) 
Homo sapiens

>  <pchembl_median>  (304) 
5.49

$$$$
CHEMBL1934429
     RDKit          2D

 27 29  0  0  0  0  0  0  0  0999 V2000
    7.9336   -1.1492    0.0000 C   0  0  0  0  0  0  0  0  0  0  0  0
    6.4664   -0.8373    0.0000 C   0  0  0  0  0  0  0  0  0  0  0  0
    5.4627   -1.9520    0.0000 O   0  0  0  0  0  0  0  0  0  0  0  0
    3.9955   -1.6402    0.0000 C   0  0  0  0  0  0  0  0  0  0  0  0
    3.5320   -0.2136    0.0000 O   0  0  0  0  0  0  0  0  0  0  0  0
    2.9918   -2.7549    0.0000 C   0  0  0  0  0  0  0  0  0  0  0  0
    1.5000   -2.5981    0.0000 C   0  0  0  0  0  0  0  0  0  0  0  0
    0.7500   -1.2990    0.0000 C   0  0  0  0  0  0  0  0  0  0  0  0
    1.5000    0.0000    0.0000 C   0  0  0  0  0  0  0  0  0  0  0  0
    0.7500    1.2990    0.0000 C   0  0  0  0  0  0  0  0  0  0  0  0
   -0.7500    1.2990    0.0000 C   0  0  0  0  0  0  0  0  0  0  0  0
   -1.5000    2.5981    0.0000 N   0  0  0  0  0  4  0  0  0  0  0  0
   -3.0000    2.5981    0.0000 O   0  0  0  0  0  0  0  0  0  0  0  0
   -0.7500    3.8971    0.0000 O   0  0  0  0  0  1  0  0  0  0  0  0
   -1.5000    0.0000    0.0000 C   0  0  0  0  0  0  0  0  0  0  0  0
   -0.7500   -1.2990    0.0000 C   0  0  0  0  0  0  0  0  0  0  0  0
    0.8899   -3.9684    0.0000 C   0  0  0  0  0  0  0  0  0  0  0  0
   -0.5773   -4.2803    0.0000 C   0  0  0  0  0  0  0  0  0  0  0  0
    2.0046   -4.9721    0.0000 N   0  0  0  0  0  0  0  0  0  0  0  0
    1.8478   -6.4639    0.0000 C   0  0  0  0  0  0  0  0  0  0  0  0
    0.4775   -7.0740    0.0000 C   0  0  0  0  0  0  0  0  0  0  0  0
    0.3207   -8.5658    0.0000 C   0  0  0  0  0  0  0  0  0  0  0  0
    1.5342   -9.4474    0.0000 C   0  0  0  0  0  0  0  0  0  0  0  0
    2.9046   -8.8373    0.0000 C   0  0  0  0  0  0  0  0  0  0  0  0
    3.0613   -7.3456    0.0000 C   0  0  0  0  0  0  0  0  0  0  0  0
    3.3037   -4.2221    0.0000 C   0  0  0  0  0  0  0  0  0  0  0  0
    4.6740   -4.8322    0.0000 C   0  0  0  0  0  0  0  0  0  0  0  0
  1  2  1  0
  2  3  1  0
  3  4  1  0
  4  5  2  0
  4  6  1  0
  6  7  1  0
  7  8  1  0
  8  9  2  0
  9 10  1  0
 10 11  2  0
 11 12  1  0
 12 13  2  0
 12 14  1  0
 11 15  1  0
 15 16  2  0
  7 17  2  0
 17 18  1  0
 17 19  1  0
 19 20  1  0
 20 21  2  0
 21 22  1  0
 22 23  2  0
 23 24  1  0
 24 25  2  0
 19 26  1  0
 26 27  1  0
 26  6  2  0
 16  8  1  0
 25 20  1  0
M  CHG  2  12   1  14  -1
M  END
>  <assay_chembl_id>  (305) 
CHEMBL1937839

>  <assay_description>  (305) 
Displacement of [17-alpha-methyl-3H]-mibolerone from human androgen receptor expressed in HEK293 derived FreeStyle293F cells after 3 hrs

>  <parent_molecule_chembl_id>  (305) 
CHEMBL1934429

>  <canonical_smiles>  (305) 
CCOC(=O)c1c(-c2ccc([N+](=O)[O-])cc2)c(C)n(-c2ccccc2)c1C

>  <standard_type>  (305) 
IC50

>  <standard_relation>  (305) 
=

>  <standard_value>  (305) 
550.0

>  <standard_units>  (305) 
nM

>  <target_pref_name>  (305) 
Androgen Receptor

>  <target_chembl_id>  (305) 
CHEMBL1871

>  <target_organism>  (305) 
Homo sapiens

>  <pchembl_median>  (305) 
5.655

$$$$
CHEMBL1934431
     RDKit          2D

 28 30  0  0  0  0  0  0  0  0999 V2000
    7.9336   -1.1492    0.0000 C   0  0  0  0  0  0  0  0  0  0  0  0
    6.4664   -0.8373    0.0000 C   0  0  0  0  0  0  0  0  0  0  0  0
    5.4627   -1.9520    0.0000 O   0  0  0  0  0  0  0  0  0  0  0  0
    3.9955   -1.6402    0.0000 C   0  0  0  0  0  0  0  0  0  0  0  0
    3.5320   -0.2136    0.0000 O   0  0  0  0  0  0  0  0  0  0  0  0
    2.9918   -2.7549    0.0000 C   0  0  0  0  0  0  0  0  0  0  0  0
    1.5000   -2.5981    0.0000 C   0  0  0  0  0  0  0  0  0  0  0  0
    0.7500   -1.2990    0.0000 C   0  0  0  0  0  0  0  0  0  0  0  0
    1.5000    0.0000    0.0000 C   0  0  0  0  0  0  0  0  0  0  0  0
    0.7500    1.2990    0.0000 C   0  0  0  0  0  0  0  0  0  0  0  0
   -0.7500    1.2990    0.0000 C   0  0  0  0  0  0  0  0  0  0  0  0
   -1.5000    2.5981    0.0000 N   0  0  0  0  0  4  0  0  0  0  0  0
   -3.0000    2.5981    0.0000 O   0  0  0  0  0  0  0  0  0  0  0  0
   -0.7500    3.8971    0.0000 O   0  0  0  0  0  1  0  0  0  0  0  0
   -1.5000    0.0000    0.0000 C   0  0  0  0  0  0  0  0  0  0  0  0
   -0.7500   -1.2990    0.0000 C   0  0  0  0  0  0  0  0  0  0  0  0
    0.8899   -3.9684    0.0000 C   0  0  0  0  0  0  0  0  0  0  0  0
   -0.5773   -4.2803    0.0000 C   0  0  0  0  0  0  0  0  0  0  0  0
    2.0046   -4.9721    0.0000 N   0  0  0  0  0  0  0  0  0  0  0  0
    1.8478   -6.4639    0.0000 C   0  0  0  0  0  0  0  0  0  0  0  0
    3.0613   -7.3456    0.0000 C   0  0  0  0  0  0  0  0  0  0  0  0
    2.9046   -8.8373    0.0000 C   0  0  0  0  0  0  0  0  0  0  0  0
    4.1181   -9.7190    0.0000 C   0  0  0  0  0  0  0  0  0  0  0  0
    5.4884   -9.1089    0.0000 C   0  0  0  0  0  0  0  0  0  0  0  0
    5.6452   -7.6171    0.0000 C   0  0  0  0  0  0  0  0  0  0  0  0
    4.4317   -6.7354    0.0000 C   0  0  0  0  0  0  0  0  0  0  0  0
    3.3037   -4.2221    0.0000 C   0  0  0  0  0  0  0  0  0  0  0  0
    4.6740   -4.8322    0.0000 C   0  0  0  0  0  0  0  0  0  0  0  0
  1  2  1  0
  2  3  1  0
  3  4  1  0
  4  5  2  0
  4  6  1  0
  6  7  1  0
  7  8  1  0
  8  9  2  0
  9 10  1  0
 10 11  2  0
 11 12  1  0
 12 13  2  0
 12 14  1  0
 11 15  1  0
 15 16  2  0
  7 17  2  0
 17 18  1  0
 17 19  1  0
 19 20  1  0
 20 21  1  0
 21 22  1  0
 22 23  1  0
 23 24  1  0
 24 25  1  0
 25 26  1  0
 19 27  1  0
 27 28  1  0
 27  6  2  0
 16  8  1  0
 26 21  1  0
M  CHG  2  12   1  14  -1
M  END
>  <assay_chembl_id>  (306) 
CHEMBL1937839

>  <assay_description>  (306) 
Displacement of [17-alpha-methyl-3H]-mibolerone from human androgen receptor expressed in HEK293 derived FreeStyle293F cells after 3 hrs

>  <parent_molecule_chembl_id>  (306) 
CHEMBL1934431

>  <canonical_smiles>  (306) 
CCOC(=O)c1c(-c2ccc([N+](=O)[O-])cc2)c(C)n(CC2CCCCC2)c1C

>  <standard_type>  (306) 
IC50

>  <standard_relation>  (306) 
=

>  <standard_value>  (306) 
310.0

>  <standard_units>  (306) 
nM

>  <target_pref_name>  (306) 
Androgen Receptor

>  <target_chembl_id>  (306) 
CHEMBL1871

>  <target_organism>  (306) 
Homo sapiens

>  <pchembl_median>  (306) 
5.53

$$$$
CHEMBL1933081
     RDKit          2D

 29 31  0  0  0  0  0  0  0  0999 V2000
    7.9336   -1.1492    0.0000 C   0  0  0  0  0  0  0  0  0  0  0  0
    6.4664   -0.8373    0.0000 C   0  0  0  0  0  0  0  0  0  0  0  0
    5.4627   -1.9520    0.0000 O   0  0  0  0  0  0  0  0  0  0  0  0
    3.9955   -1.6402    0.0000 C   0  0  0  0  0  0  0  0  0  0  0  0
    3.5320   -0.2136    0.0000 O   0  0  0  0  0  0  0  0  0  0  0  0
    2.9918   -2.7549    0.0000 C   0  0  0  0  0  0  0  0  0  0  0  0
    1.5000   -2.5981    0.0000 C   0  0  0  0  0  0  0  0  0  0  0  0
    0.7500   -1.2990    0.0000 C   0  0  0  0  0  0  0  0  0  0  0  0
    1.5000    0.0000    0.0000 C   0  0  0  0  0  0  0  0  0  0  0  0
    0.7500    1.2990    0.0000 C   0  0  0  0  0  0  0  0  0  0  0  0
   -0.7500    1.2990    0.0000 C   0  0  0  0  0  0  0  0  0  0  0  0
   -1.5000    2.5981    0.0000 N   0  0  0  0  0  4  0  0  0  0  0  0
   -3.0000    2.5981    0.0000 O   0  0  0  0  0  0  0  0  0  0  0  0
   -0.7500    3.8971    0.0000 O   0  0  0  0  0  1  0  0  0  0  0  0
   -1.5000    0.0000    0.0000 C   0  0  0  0  0  0  0  0  0  0  0  0
   -0.7500   -1.2990    0.0000 C   0  0  0  0  0  0  0  0  0  0  0  0
    0.8899   -3.9684    0.0000 C   0  0  0  0  0  0  0  0  0  0  0  0
   -0.5773   -4.2803    0.0000 C   0  0  0  0  0  0  0  0  0  0  0  0
    2.0046   -4.9721    0.0000 N   0  0  0  0  0  0  0  0  0  0  0  0
    1.8478   -6.4639    0.0000 C   0  0  0  0  0  0  0  0  0  0  0  0
    3.0613   -7.3456    0.0000 C   0  0  0  0  0  0  0  0  0  0  0  0
    2.9046   -8.8373    0.0000 C   0  0  0  0  0  0  0  0  0  0  0  0
    1.5342   -9.4474    0.0000 C   0  0  0  0  0  0  0  0  0  0  0  0
    1.3774  -10.9392    0.0000 C   0  0  0  0  0  0  0  0  0  0  0  0
    2.5910  -11.8209    0.0000 C   0  0  0  0  0  0  0  0  0  0  0  0
    3.9613  -11.2108    0.0000 C   0  0  0  0  0  0  0  0  0  0  0  0
    4.1181   -9.7190    0.0000 C   0  0  0  0  0  0  0  0  0  0  0  0
    3.3037   -4.2221    0.0000 C   0  0  0  0  0  0  0  0  0  0  0  0
    4.6740   -4.8322    0.0000 C   0  0  0  0  0  0  0  0  0  0  0  0
  1  2  1  0
  2  3  1  0
  3  4  1  0
  4  5  2  0
  4  6  1  0
  6  7  1  0
  7  8  1  0
  8  9  2  0
  9 10  1  0
 10 11  2  0
 11 12  1  0
 12 13  2  0
 12 14  1  0
 11 15  1  0
 15 16  2  0
  7 17  2  0
 17 18  1  0
 17 19  1  0
 19 20  1  0
 20 21  1  0
 21 22  1  0
 22 23  2  0
 23 24  1  0
 24 25  2  0
 25 26  1  0
 26 27  2  0
 19 28  1  0
 28 29  1  0
 28  6  2  0
 16  8  1  0
 27 22  1  0
M  CHG  2  12   1  14  -1
M  END
>  <assay_chembl_id>  (307) 
CHEMBL1937839

>  <assay_description>  (307) 
Displacement of [17-alpha-methyl-3H]-mibolerone from human androgen receptor expressed in HEK293 derived FreeStyle293F cells after 3 hrs

>  <parent_molecule_chembl_id>  (307) 
CHEMBL1933081

>  <canonical_smiles>  (307) 
CCOC(=O)c1c(-c2ccc([N+](=O)[O-])cc2)c(C)n(CCc2ccccc2)c1C

>  <standard_type>  (307) 
IC50

>  <standard_relation>  (307) 
=

>  <standard_value>  (307) 
150.0

>  <standard_units>  (307) 
nM

>  <target_pref_name>  (307) 
Androgen Receptor

>  <target_chembl_id>  (307) 
CHEMBL1871

>  <target_organism>  (307) 
Homo sapiens

>  <pchembl_median>  (307) 
5.52

$$$$
CHEMBL1934432
     RDKit          2D

 29 31  0  0  0  0  0  0  0  0999 V2000
    7.9336   -1.1492    0.0000 C   0  0  0  0  0  0  0  0  0  0  0  0
    6.4664   -0.8373    0.0000 C   0  0  0  0  0  0  0  0  0  0  0  0
    5.4627   -1.9520    0.0000 O   0  0  0  0  0  0  0  0  0  0  0  0
    3.9955   -1.6402    0.0000 C   0  0  0  0  0  0  0  0  0  0  0  0
    3.5320   -0.2136    0.0000 O   0  0  0  0  0  0  0  0  0  0  0  0
    2.9918   -2.7549    0.0000 C   0  0  0  0  0  0  0  0  0  0  0  0
    1.5000   -2.5981    0.0000 C   0  0  0  0  0  0  0  0  0  0  0  0
    0.7500   -1.2990    0.0000 C   0  0  0  0  0  0  0  0  0  0  0  0
    1.5000    0.0000    0.0000 C   0  0  0  0  0  0  0  0  0  0  0  0
    0.7500    1.2990    0.0000 C   0  0  0  0  0  0  0  0  0  0  0  0
   -0.7500    1.2990    0.0000 C   0  0  0  0  0  0  0  0  0  0  0  0
   -1.5000    2.5981    0.0000 N   0  0  0  0  0  4  0  0  0  0  0  0
   -3.0000    2.5981    0.0000 O   0  0  0  0  0  0  0  0  0  0  0  0
   -0.7500    3.8971    0.0000 O   0  0  0  0  0  1  0  0  0  0  0  0
   -1.5000    0.0000    0.0000 C   0  0  0  0  0  0  0  0  0  0  0  0
   -0.7500   -1.2990    0.0000 C   0  0  0  0  0  0  0  0  0  0  0  0
    0.8899   -3.9684    0.0000 C   0  0  0  0  0  0  0  0  0  0  0  0
   -0.5773   -4.2803    0.0000 C   0  0  0  0  0  0  0  0  0  0  0  0
    2.0046   -4.9721    0.0000 N   0  0  0  0  0  0  0  0  0  0  0  0
    1.8478   -6.4639    0.0000 C   0  0  0  0  0  0  0  0  0  0  0  0
    0.4775   -7.0740    0.0000 O   0  0  0  0  0  0  0  0  0  0  0  0
    3.0613   -7.3456    0.0000 C   0  0  0  0  0  0  0  0  0  0  0  0
    2.9046   -8.8373    0.0000 C   0  0  0  0  0  0  0  0  0  0  0  0
    4.1181   -9.7190    0.0000 C   0  0  0  0  0  0  0  0  0  0  0  0
    5.4884   -9.1089    0.0000 C   0  0  0  0  0  0  0  0  0  0  0  0
    5.6452   -7.6171    0.0000 C   0  0  0  0  0  0  0  0  0  0  0  0
    4.4317   -6.7354    0.0000 C   0  0  0  0  0  0  0  0  0  0  0  0
    3.3037   -4.2221    0.0000 C   0  0  0  0  0  0  0  0  0  0  0  0
    4.6740   -4.8322    0.0000 C   0  0  0  0  0  0  0  0  0  0  0  0
  1  2  1  0
  2  3  1  0
  3  4  1  0
  4  5  2  0
  4  6  1  0
  6  7  1  0
  7  8  1  0
  8  9  2  0
  9 10  1  0
 10 11  2  0
 11 12  1  0
 12 13  2  0
 12 14  1  0
 11 15  1  0
 15 16  2  0
  7 17  2  0
 17 18  1  0
 17 19  1  0
 19 20  1  0
 20 21  2  0
 20 22  1  0
 22 23  2  0
 23 24  1  0
 24 25  2  0
 25 26  1  0
 26 27  2  0
 19 28  1  0
 28 29  1  0
 28  6  2  0
 16  8  1  0
 27 22  1  0
M  CHG  2  12   1  14  -1
M  END
>  <assay_chembl_id>  (308) 
CHEMBL1937839

>  <assay_description>  (308) 
Displacement of [17-alpha-methyl-3H]-mibolerone from human androgen receptor expressed in HEK293 derived FreeStyle293F cells after 3 hrs

>  <parent_molecule_chembl_id>  (308) 
CHEMBL1934432

>  <canonical_smiles>  (308) 
CCOC(=O)c1c(-c2ccc([N+](=O)[O-])cc2)c(C)n(C(=O)c2ccccc2)c1C

>  <standard_type>  (308) 
IC50

>  <standard_relation>  (308) 
=

>  <standard_value>  (308) 
150.0

>  <standard_units>  (308) 
nM

>  <target_pref_name>  (308) 
Androgen Receptor

>  <target_chembl_id>  (308) 
CHEMBL1871

>  <target_organism>  (308) 
Homo sapiens

>  <pchembl_median>  (308) 
5.45

$$$$
CHEMBL1934435
     RDKit          2D

 26 28  0  0  0  0  0  0  0  0999 V2000
    4.6740   -4.8322    0.0000 C   0  0  0  0  0  0  0  0  0  0  0  0
    3.3037   -4.2221    0.0000 C   0  0  0  0  0  0  0  0  0  0  0  0
    2.9918   -2.7549    0.0000 C   0  0  0  0  0  0  0  0  0  0  0  0
    3.9955   -1.6402    0.0000 C   0  0  0  0  0  0  0  0  0  0  0  0
    3.5320   -0.2136    0.0000 O   0  0  0  0  0  0  0  0  0  0  0  0
    5.4627   -1.9520    0.0000 O   0  0  0  0  0  0  0  0  0  0  0  0
    1.5000   -2.5981    0.0000 C   0  0  0  0  0  0  0  0  0  0  0  0
    0.7500   -1.2990    0.0000 C   0  0  0  0  0  0  0  0  0  0  0  0
    1.5000    0.0000    0.0000 C   0  0  0  0  0  0  0  0  0  0  0  0
    0.7500    1.2990    0.0000 C   0  0  0  0  0  0  0  0  0  0  0  0
   -0.7500    1.2990    0.0000 C   0  0  0  0  0  0  0  0  0  0  0  0
   -1.5000    2.5981    0.0000 N   0  0  0  0  0  4  0  0  0  0  0  0
   -3.0000    2.5981    0.0000 O   0  0  0  0  0  0  0  0  0  0  0  0
   -0.7500    3.8971    0.0000 O   0  0  0  0  0  1  0  0  0  0  0  0
   -1.5000    0.0000    0.0000 C   0  0  0  0  0  0  0  0  0  0  0  0
   -0.7500   -1.2990    0.0000 C   0  0  0  0  0  0  0  0  0  0  0  0
    0.8899   -3.9684    0.0000 C   0  0  0  0  0  0  0  0  0  0  0  0
   -0.5773   -4.2803    0.0000 C   0  0  0  0  0  0  0  0  0  0  0  0
    2.0046   -4.9721    0.0000 N   0  0  0  0  0  0  0  0  0  0  0  0
    1.8478   -6.4639    0.0000 C   0  0  0  0  0  0  0  0  0  0  0  0
    0.4775   -7.0740    0.0000 C   0  0  0  0  0  0  0  0  0  0  0  0
   -0.7360   -6.1923    0.0000 C   0  0  0  0  0  0  0  0  0  0  0  0
   -2.1063   -6.8024    0.0000 C   0  0  0  0  0  0  0  0  0  0  0  0
   -2.2631   -8.2942    0.0000 C   0  0  0  0  0  0  0  0  0  0  0  0
   -1.0496   -9.1759    0.0000 C   0  0  0  0  0  0  0  0  0  0  0  0
    0.3207   -8.5658    0.0000 C   0  0  0  0  0  0  0  0  0  0  0  0
  1  2  1  0
  2  3  2  0
  3  4  1  0
  4  5  2  0
  4  6  1  0
  3  7  1  0
  7  8  1  0
  8  9  2  0
  9 10  1  0
 10 11  2  0
 11 12  1  0
 12 13  2  0
 12 14  1  0
 11 15  1  0
 15 16  2  0
  7 17  2  0
 17 18  1  0
 17 19  1  0
 19 20  1  0
 20 21  1  0
 21 22  2  0
 22 23  1  0
 23 24  2  0
 24 25  1  0
 25 26  2  0
 19  2  1  0
 26 21  1  0
 16  8  1  0
M  CHG  2  12   1  14  -1
M  END
>  <assay_chembl_id>  (309) 
CHEMBL1937839

>  <assay_description>  (309) 
Displacement of [17-alpha-methyl-3H]-mibolerone from human androgen receptor expressed in HEK293 derived FreeStyle293F cells after 3 hrs

>  <parent_molecule_chembl_id>  (309) 
CHEMBL1934435

>  <canonical_smiles>  (309) 
Cc1c(C(=O)O)c(-c2ccc([N+](=O)[O-])cc2)c(C)n1Cc1ccccc1

>  <standard_type>  (309) 
IC50

>  <standard_relation>  (309) 
=

>  <standard_value>  (309) 
620.0

>  <standard_units>  (309) 
nM

>  <target_pref_name>  (309) 
Androgen Receptor

>  <target_chembl_id>  (309) 
CHEMBL1871

>  <target_organism>  (309) 
Homo sapiens

>  <pchembl_median>  (309) 
5.535

$$$$
CHEMBL1934436
     RDKit          2D

 25 27  0  0  0  0  0  0  0  0999 V2000
    4.6740   -4.8322    0.0000 C   0  0  0  0  0  0  0  0  0  0  0  0
    3.3037   -4.2221    0.0000 C   0  0  0  0  0  0  0  0  0  0  0  0
    2.9918   -2.7549    0.0000 C   0  0  0  0  0  0  0  0  0  0  0  0
    3.9955   -1.6402    0.0000 C   0  0  0  0  0  0  0  0  0  0  0  0
    5.4627   -1.9520    0.0000 O   0  0  0  0  0  0  0  0  0  0  0  0
    1.5000   -2.5981    0.0000 C   0  0  0  0  0  0  0  0  0  0  0  0
    0.7500   -1.2990    0.0000 C   0  0  0  0  0  0  0  0  0  0  0  0
    1.5000    0.0000    0.0000 C   0  0  0  0  0  0  0  0  0  0  0  0
    0.7500    1.2990    0.0000 C   0  0  0  0  0  0  0  0  0  0  0  0
   -0.7500    1.2990    0.0000 C   0  0  0  0  0  0  0  0  0  0  0  0
   -1.5000    2.5981    0.0000 N   0  0  0  0  0  4  0  0  0  0  0  0
   -3.0000    2.5981    0.0000 O   0  0  0  0  0  0  0  0  0  0  0  0
   -0.7500    3.8971    0.0000 O   0  0  0  0  0  1  0  0  0  0  0  0
   -1.5000    0.0000    0.0000 C   0  0  0  0  0  0  0  0  0  0  0  0
   -0.7500   -1.2990    0.0000 C   0  0  0  0  0  0  0  0  0  0  0  0
    0.8899   -3.9684    0.0000 C   0  0  0  0  0  0  0  0  0  0  0  0
   -0.5773   -4.2803    0.0000 C   0  0  0  0  0  0  0  0  0  0  0  0
    2.0046   -4.9721    0.0000 N   0  0  0  0  0  0  0  0  0  0  0  0
    1.8478   -6.4639    0.0000 C   0  0  0  0  0  0  0  0  0  0  0  0
    0.4775   -7.0740    0.0000 C   0  0  0  0  0  0  0  0  0  0  0  0
   -0.7360   -6.1923    0.0000 C   0  0  0  0  0  0  0  0  0  0  0  0
   -2.1063   -6.8024    0.0000 C   0  0  0  0  0  0  0  0  0  0  0  0
   -2.2631   -8.2942    0.0000 C   0  0  0  0  0  0  0  0  0  0  0  0
   -1.0496   -9.1759    0.0000 C   0  0  0  0  0  0  0  0  0  0  0  0
    0.3207   -8.5658    0.0000 C   0  0  0  0  0  0  0  0  0  0  0  0
  1  2  1  0
  2  3  2  0
  3  4  1  0
  4  5  1  0
  3  6  1  0
  6  7  1  0
  7  8  2  0
  8  9  1  0
  9 10  2  0
 10 11  1  0
 11 12  2  0
 11 13  1  0
 10 14  1  0
 14 15  2  0
  6 16  2  0
 16 17  1  0
 16 18  1  0
 18 19  1  0
 19 20  1  0
 20 21  2  0
 21 22  1  0
 22 23  2  0
 23 24  1  0
 24 25  2  0
 18  2  1  0
 25 20  1  0
 15  7  1  0
M  CHG  2  11   1  13  -1
M  END
>  <assay_chembl_id>  (310) 
CHEMBL1937839

>  <assay_description>  (310) 
Displacement of [17-alpha-methyl-3H]-mibolerone from human androgen receptor expressed in HEK293 derived FreeStyle293F cells after 3 hrs

>  <parent_molecule_chembl_id>  (310) 
CHEMBL1934436

>  <canonical_smiles>  (310) 
Cc1c(CO)c(-c2ccc([N+](=O)[O-])cc2)c(C)n1Cc1ccccc1

>  <standard_type>  (310) 
IC50

>  <standard_relation>  (310) 
=

>  <standard_value>  (310) 
300.0

>  <standard_units>  (310) 
nM

>  <target_pref_name>  (310) 
Androgen Receptor

>  <target_chembl_id>  (310) 
CHEMBL1871

>  <target_organism>  (310) 
Homo sapiens

>  <pchembl_median>  (310) 
5.84

$$$$
CHEMBL1934437
     RDKit          2D

 26 28  0  0  0  0  0  0  0  0999 V2000
    5.4627   -1.9520    0.0000 C   0  0  0  0  0  0  0  0  0  0  0  0
    3.9955   -1.6402    0.0000 C   0  0  0  0  0  0  0  0  0  0  0  0
    3.5320   -0.2136    0.0000 O   0  0  0  0  0  0  0  0  0  0  0  0
    2.9918   -2.7549    0.0000 C   0  0  0  0  0  0  0  0  0  0  0  0
    1.5000   -2.5981    0.0000 C   0  0  0  0  0  0  0  0  0  0  0  0
    0.7500   -1.2990    0.0000 C   0  0  0  0  0  0  0  0  0  0  0  0
    1.5000    0.0000    0.0000 C   0  0  0  0  0  0  0  0  0  0  0  0
    0.7500    1.2990    0.0000 C   0  0  0  0  0  0  0  0  0  0  0  0
   -0.7500    1.2990    0.0000 C   0  0  0  0  0  0  0  0  0  0  0  0
   -1.5000    2.5981    0.0000 N   0  0  0  0  0  4  0  0  0  0  0  0
   -3.0000    2.5981    0.0000 O   0  0  0  0  0  0  0  0  0  0  0  0
   -0.7500    3.8971    0.0000 O   0  0  0  0  0  1  0  0  0  0  0  0
   -1.5000    0.0000    0.0000 C   0  0  0  0  0  0  0  0  0  0  0  0
   -0.7500   -1.2990    0.0000 C   0  0  0  0  0  0  0  0  0  0  0  0
    0.8899   -3.9684    0.0000 C   0  0  0  0  0  0  0  0  0  0  0  0
   -0.5773   -4.2803    0.0000 C   0  0  0  0  0  0  0  0  0  0  0  0
    2.0046   -4.9721    0.0000 N   0  0  0  0  0  0  0  0  0  0  0  0
    1.8478   -6.4639    0.0000 C   0  0  0  0  0  0  0  0  0  0  0  0
    3.0613   -7.3456    0.0000 C   0  0  0  0  0  0  0  0  0  0  0  0
    2.9046   -8.8373    0.0000 C   0  0  0  0  0  0  0  0  0  0  0  0
    4.1181   -9.7190    0.0000 C   0  0  0  0  0  0  0  0  0  0  0  0
    5.4884   -9.1089    0.0000 C   0  0  0  0  0  0  0  0  0  0  0  0
    5.6452   -7.6171    0.0000 C   0  0  0  0  0  0  0  0  0  0  0  0
    4.4317   -6.7354    0.0000 C   0  0  0  0  0  0  0  0  0  0  0  0
    3.3037   -4.2221    0.0000 C   0  0  0  0  0  0  0  0  0  0  0  0
    4.6740   -4.8322    0.0000 C   0  0  0  0  0  0  0  0  0  0  0  0
  1  2  1  0
  2  3  2  0
  2  4  1  0
  4  5  1  0
  5  6  1  0
  6  7  2  0
  7  8  1  0
  8  9  2  0
  9 10  1  0
 10 11  2  0
 10 12  1  0
  9 13  1  0
 13 14  2  0
  5 15  2  0
 15 16  1  0
 15 17  1  0
 17 18  1  0
 18 19  1  0
 19 20  2  0
 20 21  1  0
 21 22  2  0
 22 23  1  0
 23 24  2  0
 17 25  1  0
 25 26  1  0
 25  4  2  0
 14  6  1  0
 24 19  1  0
M  CHG  2  10   1  12  -1
M  END
>  <assay_chembl_id>  (311) 
CHEMBL1937839

>  <assay_description>  (311) 
Displacement of [17-alpha-methyl-3H]-mibolerone from human androgen receptor expressed in HEK293 derived FreeStyle293F cells after 3 hrs

>  <parent_molecule_chembl_id>  (311) 
CHEMBL1934437

>  <canonical_smiles>  (311) 
CC(=O)c1c(-c2ccc([N+](=O)[O-])cc2)c(C)n(Cc2ccccc2)c1C

>  <standard_type>  (311) 
IC50

>  <standard_relation>  (311) 
=

>  <standard_value>  (311) 
390.0

>  <standard_units>  (311) 
nM

>  <target_pref_name>  (311) 
Androgen Receptor

>  <target_chembl_id>  (311) 
CHEMBL1871

>  <target_organism>  (311) 
Homo sapiens

>  <pchembl_median>  (311) 
9.15

$$$$
CHEMBL1934439
     RDKit          2D

 24 26  0  0  0  0  0  0  0  0999 V2000
    6.4664   -0.8373    0.0000 C   0  0  0  0  0  0  0  0  0  0  0  0
    5.4627   -1.9520    0.0000 O   0  0  0  0  0  0  0  0  0  0  0  0
    3.9955   -1.6402    0.0000 C   0  0  0  0  0  0  0  0  0  0  0  0
    3.5320   -0.2136    0.0000 O   0  0  0  0  0  0  0  0  0  0  0  0
    2.9918   -2.7549    0.0000 C   0  0  0  0  0  0  0  0  0  0  0  0
    1.5000   -2.5981    0.0000 C   0  0  0  0  0  0  0  0  0  0  0  0
    0.7500   -1.2990    0.0000 C   0  0  0  0  0  0  0  0  0  0  0  0
    1.5000    0.0000    0.0000 C   0  0  0  0  0  0  0  0  0  0  0  0
    0.7500    1.2990    0.0000 C   0  0  0  0  0  0  0  0  0  0  0  0
   -0.7500    1.2990    0.0000 C   0  0  0  0  0  0  0  0  0  0  0  0
   -1.5000    0.0000    0.0000 C   0  0  0  0  0  0  0  0  0  0  0  0
   -0.7500   -1.2990    0.0000 C   0  0  0  0  0  0  0  0  0  0  0  0
    0.8899   -3.9684    0.0000 C   0  0  0  0  0  0  0  0  0  0  0  0
   -0.5773   -4.2803    0.0000 C   0  0  0  0  0  0  0  0  0  0  0  0
    2.0046   -4.9721    0.0000 N   0  0  0  0  0  0  0  0  0  0  0  0
    1.8478   -6.4639    0.0000 C   0  0  0  0  0  0  0  0  0  0  0  0
    3.0613   -7.3456    0.0000 C   0  0  0  0  0  0  0  0  0  0  0  0
    2.9046   -8.8373    0.0000 C   0  0  0  0  0  0  0  0  0  0  0  0
    4.1181   -9.7190    0.0000 C   0  0  0  0  0  0  0  0  0  0  0  0
    5.4884   -9.1089    0.0000 C   0  0  0  0  0  0  0  0  0  0  0  0
    5.6452   -7.6171    0.0000 C   0  0  0  0  0  0  0  0  0  0  0  0
    4.4317   -6.7354    0.0000 C   0  0  0  0  0  0  0  0  0  0  0  0
    3.3037   -4.2221    0.0000 C   0  0  0  0  0  0  0  0  0  0  0  0
    4.6740   -4.8322    0.0000 C   0  0  0  0  0  0  0  0  0  0  0  0
  1  2  1  0
  2  3  1  0
  3  4  2  0
  3  5  1  0
  5  6  1  0
  6  7  1  0
  7  8  2  0
  8  9  1  0
  9 10  2  0
 10 11  1  0
 11 12  2  0
  6 13  2  0
 13 14  1  0
 13 15  1  0
 15 16  1  0
 16 17  1  0
 17 18  2  0
 18 19  1  0
 19 20  2  0
 20 21  1  0
 21 22  2  0
 15 23  1  0
 23 24  1  0
 23  5  2  0
 12  7  1  0
 22 17  1  0
M  END
>  <assay_chembl_id>  (312) 
CHEMBL1937839

>  <assay_description>  (312) 
Displacement of [17-alpha-methyl-3H]-mibolerone from human androgen receptor expressed in HEK293 derived FreeStyle293F cells after 3 hrs

>  <parent_molecule_chembl_id>  (312) 
CHEMBL1934439

>  <canonical_smiles>  (312) 
COC(=O)c1c(-c2ccccc2)c(C)n(Cc2ccccc2)c1C

>  <standard_type>  (312) 
IC50

>  <standard_relation>  (312) 
=

>  <standard_value>  (312) 
130.0

>  <standard_units>  (312) 
nM

>  <target_pref_name>  (312) 
Androgen Receptor

>  <target_chembl_id>  (312) 
CHEMBL1871

>  <target_organism>  (312) 
Homo sapiens

>  <pchembl_median>  (312) 
5.25

$$$$
CHEMBL1934440
     RDKit          2D

 26 28  0  0  0  0  0  0  0  0999 V2000
    6.4664   -0.8373    0.0000 C   0  0  0  0  0  0  0  0  0  0  0  0
    5.4627   -1.9520    0.0000 O   0  0  0  0  0  0  0  0  0  0  0  0
    3.9955   -1.6402    0.0000 C   0  0  0  0  0  0  0  0  0  0  0  0
    3.5320   -0.2136    0.0000 O   0  0  0  0  0  0  0  0  0  0  0  0
    2.9918   -2.7549    0.0000 C   0  0  0  0  0  0  0  0  0  0  0  0
    1.5000   -2.5981    0.0000 C   0  0  0  0  0  0  0  0  0  0  0  0
    0.7500   -1.2990    0.0000 C   0  0  0  0  0  0  0  0  0  0  0  0
    1.5000    0.0000    0.0000 C   0  0  0  0  0  0  0  0  0  0  0  0
    0.7500    1.2990    0.0000 C   0  0  0  0  0  0  0  0  0  0  0  0
   -0.7500    1.2990    0.0000 C   0  0  0  0  0  0  0  0  0  0  0  0
   -1.5000    2.5981    0.0000 C   0  0  0  0  0  0  0  0  0  0  0  0
   -2.2500    3.8971    0.0000 N   0  0  0  0  0  0  0  0  0  0  0  0
   -1.5000    0.0000    0.0000 C   0  0  0  0  0  0  0  0  0  0  0  0
   -0.7500   -1.2990    0.0000 C   0  0  0  0  0  0  0  0  0  0  0  0
    0.8899   -3.9684    0.0000 C   0  0  0  0  0  0  0  0  0  0  0  0
   -0.5773   -4.2803    0.0000 C   0  0  0  0  0  0  0  0  0  0  0  0
    2.0046   -4.9721    0.0000 N   0  0  0  0  0  0  0  0  0  0  0  0
    1.8478   -6.4639    0.0000 C   0  0  0  0  0  0  0  0  0  0  0  0
    3.0613   -7.3456    0.0000 C   0  0  0  0  0  0  0  0  0  0  0  0
    2.9046   -8.8373    0.0000 C   0  0  0  0  0  0  0  0  0  0  0  0
    4.1181   -9.7190    0.0000 C   0  0  0  0  0  0  0  0  0  0  0  0
    5.4884   -9.1089    0.0000 C   0  0  0  0  0  0  0  0  0  0  0  0
    5.6452   -7.6171    0.0000 C   0  0  0  0  0  0  0  0  0  0  0  0
    4.4317   -6.7354    0.0000 C   0  0  0  0  0  0  0  0  0  0  0  0
    3.3037   -4.2221    0.0000 C   0  0  0  0  0  0  0  0  0  0  0  0
    4.6740   -4.8322    0.0000 C   0  0  0  0  0  0  0  0  0  0  0  0
  1  2  1  0
  2  3  1  0
  3  4  2  0
  3  5  1  0
  5  6  1  0
  6  7  1  0
  7  8  2  0
  8  9  1  0
  9 10  2  0
 10 11  1  0
 11 12  3  0
 10 13  1  0
 13 14  2  0
  6 15  2  0
 15 16  1  0
 15 17  1  0
 17 18  1  0
 18 19  1  0
 19 20  2  0
 20 21  1  0
 21 22  2  0
 22 23  1  0
 23 24  2  0
 17 25  1  0
 25 26  1  0
 25  5  2  0
 14  7  1  0
 24 19  1  0
M  END
>  <assay_chembl_id>  (313) 
CHEMBL1937839

>  <assay_description>  (313) 
Displacement of [17-alpha-methyl-3H]-mibolerone from human androgen receptor expressed in HEK293 derived FreeStyle293F cells after 3 hrs

>  <parent_molecule_chembl_id>  (313) 
CHEMBL1934440

>  <canonical_smiles>  (313) 
COC(=O)c1c(-c2ccc(C#N)cc2)c(C)n(Cc2ccccc2)c1C

>  <standard_type>  (313) 
IC50

>  <standard_relation>  (313) 
=

>  <standard_value>  (313) 
27.0

>  <standard_units>  (313) 
nM

>  <target_pref_name>  (313) 
Androgen Receptor

>  <target_chembl_id>  (313) 
CHEMBL1871

>  <target_organism>  (313) 
Homo sapiens

>  <pchembl_median>  (313) 
5.44

$$$$
CHEMBL1934442
     RDKit          2D

 24 26  0  0  0  0  0  0  0  0999 V2000
    4.6740   -4.8322    0.0000 C   0  0  0  0  0  0  0  0  0  0  0  0
    3.3037   -4.2221    0.0000 C   0  0  0  0  0  0  0  0  0  0  0  0
    2.9918   -2.7549    0.0000 C   0  0  0  0  0  0  0  0  0  0  0  0
    3.9955   -1.6402    0.0000 C   0  0  0  0  0  0  0  0  0  0  0  0
    4.9992   -0.5254    0.0000 N   0  0  0  0  0  0  0  0  0  0  0  0
    1.5000   -2.5981    0.0000 C   0  0  0  0  0  0  0  0  0  0  0  0
    0.7500   -1.2990    0.0000 C   0  0  0  0  0  0  0  0  0  0  0  0
    1.5000    0.0000    0.0000 C   0  0  0  0  0  0  0  0  0  0  0  0
    0.7500    1.2990    0.0000 C   0  0  0  0  0  0  0  0  0  0  0  0
   -0.7500    1.2990    0.0000 C   0  0  0  0  0  0  0  0  0  0  0  0
   -1.5000    2.5981    0.0000 C   0  0  0  0  0  0  0  0  0  0  0  0
   -2.2500    3.8971    0.0000 N   0  0  0  0  0  0  0  0  0  0  0  0
   -1.5000    0.0000    0.0000 C   0  0  0  0  0  0  0  0  0  0  0  0
   -0.7500   -1.2990    0.0000 C   0  0  0  0  0  0  0  0  0  0  0  0
    0.8899   -3.9684    0.0000 C   0  0  0  0  0  0  0  0  0  0  0  0
   -0.5773   -4.2803    0.0000 C   0  0  0  0  0  0  0  0  0  0  0  0
    2.0046   -4.9721    0.0000 N   0  0  0  0  0  0  0  0  0  0  0  0
    1.8478   -6.4639    0.0000 C   0  0  0  0  0  0  0  0  0  0  0  0
    0.4775   -7.0740    0.0000 C   0  0  0  0  0  0  0  0  0  0  0  0
   -0.7360   -6.1923    0.0000 C   0  0  0  0  0  0  0  0  0  0  0  0
   -2.1063   -6.8024    0.0000 C   0  0  0  0  0  0  0  0  0  0  0  0
   -2.2631   -8.2942    0.0000 C   0  0  0  0  0  0  0  0  0  0  0  0
   -1.0496   -9.1759    0.0000 C   0  0  0  0  0  0  0  0  0  0  0  0
    0.3207   -8.5658    0.0000 C   0  0  0  0  0  0  0  0  0  0  0  0
  1  2  1  0
  2  3  2  0
  3  4  1  0
  4  5  3  0
  3  6  1  0
  6  7  1  0
  7  8  2  0
  8  9  1  0
  9 10  2  0
 10 11  1  0
 11 12  3  0
 10 13  1  0
 13 14  2  0
  6 15  2  0
 15 16  1  0
 15 17  1  0
 17 18  1  0
 18 19  1  0
 19 20  2  0
 20 21  1  0
 21 22  2  0
 22 23  1  0
 23 24  2  0
 17  2  1  0
 24 19  1  0
 14  7  1  0
M  END
>  <assay_chembl_id>  (314) 
CHEMBL1937839

>  <assay_description>  (314) 
Displacement of [17-alpha-methyl-3H]-mibolerone from human androgen receptor expressed in HEK293 derived FreeStyle293F cells after 3 hrs

>  <parent_molecule_chembl_id>  (314) 
CHEMBL1934442

>  <canonical_smiles>  (314) 
Cc1c(C#N)c(-c2ccc(C#N)cc2)c(C)n1Cc1ccccc1

>  <standard_type>  (314) 
IC50

>  <standard_relation>  (314) 
=

>  <standard_value>  (314) 
1.4

>  <standard_units>  (314) 
nM

>  <target_pref_name>  (314) 
Androgen Receptor

>  <target_chembl_id>  (314) 
CHEMBL1871

>  <target_organism>  (314) 
Homo sapiens

>  <pchembl_median>  (314) 
5.43

$$$$
CHEMBL1934443
     RDKit          2D

 24 26  0  0  0  0  0  0  0  0999 V2000
    4.6740   -4.8322    0.0000 C   0  0  0  0  0  0  0  0  0  0  0  0
    3.3037   -4.2221    0.0000 C   0  0  0  0  0  0  0  0  0  0  0  0
    2.9918   -2.7549    0.0000 C   0  0  0  0  0  0  0  0  0  0  0  0
    3.9955   -1.6402    0.0000 C   0  0  0  0  0  0  0  0  0  0  0  0
    4.9992   -0.5254    0.0000 N   0  0  0  0  0  0  0  0  0  0  0  0
    1.5000   -2.5981    0.0000 C   0  0  0  0  0  0  0  0  0  0  0  0
    0.7500   -1.2990    0.0000 C   0  0  0  0  0  0  0  0  0  0  0  0
    1.5000    0.0000    0.0000 C   0  0  0  0  0  0  0  0  0  0  0  0
    0.7500    1.2990    0.0000 C   0  0  0  0  0  0  0  0  0  0  0  0
   -0.7500    1.2990    0.0000 C   0  0  0  0  0  0  0  0  0  0  0  0
   -1.5000    2.5981    0.0000 C   0  0  0  0  0  0  0  0  0  0  0  0
   -2.2500    3.8971    0.0000 N   0  0  0  0  0  0  0  0  0  0  0  0
   -1.5000    0.0000    0.0000 C   0  0  0  0  0  0  0  0  0  0  0  0
   -0.7500   -1.2990    0.0000 C   0  0  0  0  0  0  0  0  0  0  0  0
    0.8899   -3.9684    0.0000 C   0  0  0  0  0  0  0  0  0  0  0  0
   -0.5773   -4.2803    0.0000 C   0  0  0  0  0  0  0  0  0  0  0  0
    2.0046   -4.9721    0.0000 N   0  0  0  0  0  0  0  0  0  0  0  0
    1.8478   -6.4639    0.0000 C   0  0  0  0  0  0  0  0  0  0  0  0
    0.4775   -7.0740    0.0000 C   0  0  0  0  0  0  0  0  0  0  0  0
   -0.7360   -6.1923    0.0000 C   0  0  0  0  0  0  0  0  0  0  0  0
   -2.1063   -6.8024    0.0000 C   0  0  0  0  0  0  0  0  0  0  0  0
   -2.2631   -8.2942    0.0000 C   0  0  0  0  0  0  0  0  0  0  0  0
   -1.0496   -9.1759    0.0000 N   0  0  0  0  0  0  0  0  0  0  0  0
    0.3207   -8.5658    0.0000 C   0  0  0  0  0  0  0  0  0  0  0  0
  1  2  1  0
  2  3  2  0
  3  4  1  0
  4  5  3  0
  3  6  1  0
  6  7  1  0
  7  8  2  0
  8  9  1  0
  9 10  2  0
 10 11  1  0
 11 12  3  0
 10 13  1  0
 13 14  2  0
  6 15  2  0
 15 16  1  0
 15 17  1  0
 17 18  1  0
 18 19  1  0
 19 20  2  0
 20 21  1  0
 21 22  2  0
 22 23  1  0
 23 24  2  0
 17  2  1  0
 24 19  1  0
 14  7  1  0
M  END
>  <assay_chembl_id>  (315) 
CHEMBL1937839

>  <assay_description>  (315) 
Displacement of [17-alpha-methyl-3H]-mibolerone from human androgen receptor expressed in HEK293 derived FreeStyle293F cells after 3 hrs

>  <parent_molecule_chembl_id>  (315) 
CHEMBL1934443

>  <canonical_smiles>  (315) 
Cc1c(C#N)c(-c2ccc(C#N)cc2)c(C)n1Cc1cccnc1

>  <standard_type>  (315) 
IC50

>  <standard_relation>  (315) 
=

>  <standard_value>  (315) 
3.4

>  <standard_units>  (315) 
nM

>  <target_pref_name>  (315) 
Androgen Receptor

>  <target_chembl_id>  (315) 
CHEMBL1871

>  <target_organism>  (315) 
Homo sapiens

>  <pchembl_median>  (315) 
5.04

$$$$
CHEMBL1934444
     RDKit          2D

 25 27  0  0  0  0  0  0  0  0999 V2000
    4.6740   -4.8322    0.0000 C   0  0  0  0  0  0  0  0  0  0  0  0
    3.3037   -4.2221    0.0000 C   0  0  0  0  0  0  0  0  0  0  0  0
    2.9918   -2.7549    0.0000 C   0  0  0  0  0  0  0  0  0  0  0  0
    3.9955   -1.6402    0.0000 C   0  0  0  0  0  0  0  0  0  0  0  0
    4.9992   -0.5254    0.0000 N   0  0  0  0  0  0  0  0  0  0  0  0
    1.5000   -2.5981    0.0000 C   0  0  0  0  0  0  0  0  0  0  0  0
    0.7500   -1.2990    0.0000 C   0  0  0  0  0  0  0  0  0  0  0  0
    1.5000    0.0000    0.0000 C   0  0  0  0  0  0  0  0  0  0  0  0
    0.7500    1.2990    0.0000 C   0  0  0  0  0  0  0  0  0  0  0  0
   -0.7500    1.2990    0.0000 C   0  0  0  0  0  0  0  0  0  0  0  0
   -1.5000    2.5981    0.0000 C   0  0  0  0  0  0  0  0  0  0  0  0
   -2.2500    3.8971    0.0000 N   0  0  0  0  0  0  0  0  0  0  0  0
   -1.5000    0.0000    0.0000 C   0  0  0  0  0  0  0  0  0  0  0  0
   -0.7500   -1.2990    0.0000 C   0  0  0  0  0  0  0  0  0  0  0  0
    0.8899   -3.9684    0.0000 C   0  0  0  0  0  0  0  0  0  0  0  0
   -0.5773   -4.2803    0.0000 C   0  0  0  0  0  0  0  0  0  0  0  0
    2.0046   -4.9721    0.0000 N   0  0  0  0  0  0  0  0  0  0  0  0
    1.8478   -6.4639    0.0000 C   0  0  0  0  0  0  0  0  0  0  0  0
    0.4775   -7.0740    0.0000 C   0  0  0  0  0  0  0  0  0  0  0  0
   -0.7360   -6.1923    0.0000 C   0  0  0  0  0  0  0  0  0  0  0  0
   -2.1063   -6.8024    0.0000 C   0  0  0  0  0  0  0  0  0  0  0  0
   -2.2631   -8.2942    0.0000 C   0  0  0  0  0  0  0  0  0  0  0  0
   -3.6335   -8.9043    0.0000 Cl  0  0  0  0  0  0  0  0  0  0  0  0
   -1.0496   -9.1759    0.0000 N   0  0  0  0  0  0  0  0  0  0  0  0
    0.3207   -8.5658    0.0000 C   0  0  0  0  0  0  0  0  0  0  0  0
  1  2  1  0
  2  3  2  0
  3  4  1  0
  4  5  3  0
  3  6  1  0
  6  7  1  0
  7  8  2  0
  8  9  1  0
  9 10  2  0
 10 11  1  0
 11 12  3  0
 10 13  1  0
 13 14  2  0
  6 15  2  0
 15 16  1  0
 15 17  1  0
 17 18  1  0
 18 19  1  0
 19 20  2  0
 20 21  1  0
 21 22  2  0
 22 23  1  0
 22 24  1  0
 24 25  2  0
 17  2  1  0
 25 19  1  0
 14  7  1  0
M  END
>  <assay_chembl_id>  (316) 
CHEMBL1937839

>  <assay_description>  (316) 
Displacement of [17-alpha-methyl-3H]-mibolerone from human androgen receptor expressed in HEK293 derived FreeStyle293F cells after 3 hrs

>  <parent_molecule_chembl_id>  (316) 
CHEMBL1934444

>  <canonical_smiles>  (316) 
Cc1c(C#N)c(-c2ccc(C#N)cc2)c(C)n1Cc1ccc(Cl)nc1

>  <standard_type>  (316) 
IC50

>  <standard_relation>  (316) 
=

>  <standard_value>  (316) 
9.0

>  <standard_units>  (316) 
nM

>  <target_pref_name>  (316) 
Androgen Receptor

>  <target_chembl_id>  (316) 
CHEMBL1871

>  <target_organism>  (316) 
Homo sapiens

>  <pchembl_median>  (316) 
4.08

$$$$
CHEMBL1934445
     RDKit          2D

 26 28  0  0  0  0  0  0  0  0999 V2000
    4.6740   -4.8322    0.0000 C   0  0  0  0  0  0  0  0  0  0  0  0
    3.3037   -4.2221    0.0000 C   0  0  0  0  0  0  0  0  0  0  0  0
    2.9918   -2.7549    0.0000 C   0  0  0  0  0  0  0  0  0  0  0  0
    3.9955   -1.6402    0.0000 C   0  0  0  0  0  0  0  0  0  0  0  0
    4.9992   -0.5254    0.0000 N   0  0  0  0  0  0  0  0  0  0  0  0
    1.5000   -2.5981    0.0000 C   0  0  0  0  0  0  0  0  0  0  0  0
    0.7500   -1.2990    0.0000 C   0  0  0  0  0  0  0  0  0  0  0  0
    1.5000    0.0000    0.0000 C   0  0  0  0  0  0  0  0  0  0  0  0
    0.7500    1.2990    0.0000 C   0  0  0  0  0  0  0  0  0  0  0  0
   -0.7500    1.2990    0.0000 C   0  0  0  0  0  0  0  0  0  0  0  0
   -1.5000    2.5981    0.0000 C   0  0  0  0  0  0  0  0  0  0  0  0
   -2.2500    3.8971    0.0000 N   0  0  0  0  0  0  0  0  0  0  0  0
   -1.5000    0.0000    0.0000 C   0  0  0  0  0  0  0  0  0  0  0  0
   -0.7500   -1.2990    0.0000 C   0  0  0  0  0  0  0  0  0  0  0  0
    0.8899   -3.9684    0.0000 C   0  0  0  0  0  0  0  0  0  0  0  0
   -0.5773   -4.2803    0.0000 C   0  0  0  0  0  0  0  0  0  0  0  0
    2.0046   -4.9721    0.0000 N   0  0  0  0  0  0  0  0  0  0  0  0
    1.8478   -6.4639    0.0000 C   0  0  0  0  0  0  0  0  0  0  0  0
    0.4775   -7.0740    0.0000 C   0  0  0  0  0  0  0  0  0  0  0  0
   -0.7360   -6.1923    0.0000 C   0  0  0  0  0  0  0  0  0  0  0  0
   -2.1063   -6.8024    0.0000 N   0  0  0  0  0  0  0  0  0  0  0  0
   -2.2631   -8.2942    0.0000 C   0  0  0  0  0  0  0  0  0  0  0  0
   -1.0496   -9.1759    0.0000 C   0  0  0  0  0  0  0  0  0  0  0  0
   -1.2064  -10.6676    0.0000 C   0  0  0  0  0  0  0  0  0  0  0  0
   -2.5767  -11.2778    0.0000 O   0  0  0  0  0  0  0  0  0  0  0  0
    0.3207   -8.5658    0.0000 C   0  0  0  0  0  0  0  0  0  0  0  0
  1  2  1  0
  2  3  2  0
  3  4  1  0
  4  5  3  0
  3  6  1  0
  6  7  1  0
  7  8  2  0
  8  9  1  0
  9 10  2  0
 10 11  1  0
 11 12  3  0
 10 13  1  0
 13 14  2  0
  6 15  2  0
 15 16  1  0
 15 17  1  0
 17 18  1  0
 18 19  1  0
 19 20  2  0
 20 21  1  0
 21 22  2  0
 22 23  1  0
 23 24  1  0
 24 25  1  0
 23 26  2  0
 17  2  1  0
 26 19  1  0
 14  7  1  0
M  END
>  <assay_chembl_id>  (317) 
CHEMBL1937839

>  <assay_description>  (317) 
Displacement of [17-alpha-methyl-3H]-mibolerone from human androgen receptor expressed in HEK293 derived FreeStyle293F cells after 3 hrs

>  <parent_molecule_chembl_id>  (317) 
CHEMBL1934445

>  <canonical_smiles>  (317) 
Cc1c(C#N)c(-c2ccc(C#N)cc2)c(C)n1Cc1cncc(CO)c1

>  <standard_type>  (317) 
IC50

>  <standard_relation>  (317) 
=

>  <standard_value>  (317) 
14.0

>  <standard_units>  (317) 
nM

>  <target_pref_name>  (317) 
Androgen Receptor

>  <target_chembl_id>  (317) 
CHEMBL1871

>  <target_organism>  (317) 
Homo sapiens

>  <pchembl_median>  (317) 
6.31

$$$$
CHEMBL1934446
     RDKit          2D

 27 29  0  0  0  0  0  0  0  0999 V2000
    4.6740   -4.8322    0.0000 C   0  0  0  0  0  0  0  0  0  0  0  0
    3.3037   -4.2221    0.0000 C   0  0  0  0  0  0  0  0  0  0  0  0
    2.9918   -2.7549    0.0000 C   0  0  0  0  0  0  0  0  0  0  0  0
    3.9955   -1.6402    0.0000 C   0  0  0  0  0  0  0  0  0  0  0  0
    4.9992   -0.5254    0.0000 N   0  0  0  0  0  0  0  0  0  0  0  0
    1.5000   -2.5981    0.0000 C   0  0  0  0  0  0  0  0  0  0  0  0
    0.7500   -1.2990    0.0000 C   0  0  0  0  0  0  0  0  0  0  0  0
    1.5000    0.0000    0.0000 C   0  0  0  0  0  0  0  0  0  0  0  0
    0.7500    1.2990    0.0000 C   0  0  0  0  0  0  0  0  0  0  0  0
   -0.7500    1.2990    0.0000 C   0  0  0  0  0  0  0  0  0  0  0  0
   -1.5000    2.5981    0.0000 C   0  0  0  0  0  0  0  0  0  0  0  0
   -2.2500    3.8971    0.0000 N   0  0  0  0  0  0  0  0  0  0  0  0
   -1.5000    0.0000    0.0000 C   0  0  0  0  0  0  0  0  0  0  0  0
   -0.7500   -1.2990    0.0000 C   0  0  0  0  0  0  0  0  0  0  0  0
    0.8899   -3.9684    0.0000 C   0  0  0  0  0  0  0  0  0  0  0  0
   -0.5773   -4.2803    0.0000 C   0  0  0  0  0  0  0  0  0  0  0  0
    2.0046   -4.9721    0.0000 N   0  0  0  0  0  0  0  0  0  0  0  0
    1.8478   -6.4639    0.0000 C   0  0  0  0  0  0  0  0  0  0  0  0
    0.4775   -7.0740    0.0000 C   0  0  0  0  0  0  0  0  0  0  0  0
   -0.7360   -6.1923    0.0000 C   0  0  0  0  0  0  0  0  0  0  0  0
   -2.1063   -6.8024    0.0000 N   0  0  0  0  0  0  0  0  0  0  0  0
   -2.2631   -8.2942    0.0000 C   0  0  0  0  0  0  0  0  0  0  0  0
   -3.6335   -8.9043    0.0000 Cl  0  0  0  0  0  0  0  0  0  0  0  0
   -1.0496   -9.1759    0.0000 C   0  0  0  0  0  0  0  0  0  0  0  0
   -1.2064  -10.6676    0.0000 C   0  0  0  0  0  0  0  0  0  0  0  0
    0.0071  -11.5493    0.0000 O   0  0  0  0  0  0  0  0  0  0  0  0
    0.3207   -8.5658    0.0000 C   0  0  0  0  0  0  0  0  0  0  0  0
  1  2  1  0
  2  3  2  0
  3  4  1  0
  4  5  3  0
  3  6  1  0
  6  7  1  0
  7  8  2  0
  8  9  1  0
  9 10  2  0
 10 11  1  0
 11 12  3  0
 10 13  1  0
 13 14  2  0
  6 15  2  0
 15 16  1  0
 15 17  1  0
 17 18  1  0
 18 19  1  0
 19 20  2  0
 20 21  1  0
 21 22  2  0
 22 23  1  0
 22 24  1  0
 24 25  1  0
 25 26  1  0
 24 27  2  0
 17  2  1  0
 27 19  1  0
 14  7  1  0
M  END
>  <assay_chembl_id>  (318) 
CHEMBL1937839

>  <assay_description>  (318) 
Displacement of [17-alpha-methyl-3H]-mibolerone from human androgen receptor expressed in HEK293 derived FreeStyle293F cells after 3 hrs

>  <parent_molecule_chembl_id>  (318) 
CHEMBL1934446

>  <canonical_smiles>  (318) 
Cc1c(C#N)c(-c2ccc(C#N)cc2)c(C)n1Cc1cnc(Cl)c(CO)c1

>  <standard_type>  (318) 
IC50

>  <standard_relation>  (318) 
=

>  <standard_value>  (318) 
37.0

>  <standard_units>  (318) 
nM

>  <target_pref_name>  (318) 
Androgen Receptor

>  <target_chembl_id>  (318) 
CHEMBL1871

>  <target_organism>  (318) 
Homo sapiens

>  <pchembl_median>  (318) 
6.59

$$$$
CHEMBL1934447
     RDKit          2D

 26 28  0  0  0  0  0  0  0  0999 V2000
    3.9955   -1.6402    0.0000 C   0  0  0  0  0  0  0  0  0  0  0  0
    2.9918   -2.7549    0.0000 C   0  0  0  0  0  0  0  0  0  0  0  0
    1.5000   -2.5981    0.0000 C   0  0  0  0  0  0  0  0  0  0  0  0
    0.7500   -1.2990    0.0000 C   0  0  0  0  0  0  0  0  0  0  0  0
    1.5000    0.0000    0.0000 C   0  0  0  0  0  0  0  0  0  0  0  0
    0.7500    1.2990    0.0000 C   0  0  0  0  0  0  0  0  0  0  0  0
   -0.7500    1.2990    0.0000 C   0  0  0  0  0  0  0  0  0  0  0  0
   -1.5000    2.5981    0.0000 C   0  0  0  0  0  0  0  0  0  0  0  0
   -2.2500    3.8971    0.0000 N   0  0  0  0  0  0  0  0  0  0  0  0
   -1.5000    0.0000    0.0000 C   0  0  0  0  0  0  0  0  0  0  0  0
   -0.7500   -1.2990    0.0000 C   0  0  0  0  0  0  0  0  0  0  0  0
    0.8899   -3.9684    0.0000 C   0  0  0  0  0  0  0  0  0  0  0  0
   -0.5773   -4.2803    0.0000 C   0  0  0  0  0  0  0  0  0  0  0  0
   -2.0445   -4.5921    0.0000 N   0  0  0  0  0  0  0  0  0  0  0  0
    2.0046   -4.9721    0.0000 C   0  0  0  0  0  0  0  0  0  0  0  0
    3.3037   -4.2221    0.0000 N   0  0  0  0  0  0  0  0  0  0  0  0
    4.6740   -4.8322    0.0000 C   0  0  0  0  0  0  0  0  0  0  0  0
    4.8308   -6.3240    0.0000 C   0  0  0  0  0  0  0  0  0  0  0  0
    3.6172   -7.2057    0.0000 C   0  0  0  0  0  0  0  0  0  0  0  0
    3.7740   -8.6974    0.0000 N   0  0  0  0  0  0  0  0  0  0  0  0
    5.1443   -9.3075    0.0000 C   0  0  0  0  0  0  0  0  0  0  0  0
    5.3011  -10.7993    0.0000 Cl  0  0  0  0  0  0  0  0  0  0  0  0
    6.3579   -8.4259    0.0000 C   0  0  0  0  0  0  0  0  0  0  0  0
    7.7282   -9.0360    0.0000 C   0  0  0  0  0  0  0  0  0  0  0  0
    8.9417   -8.1543    0.0000 O   0  0  0  0  0  0  0  0  0  0  0  0
    6.2011   -6.9341    0.0000 C   0  0  0  0  0  0  0  0  0  0  0  0
  1  2  1  0
  2  3  2  0
  3  4  1  0
  4  5  2  0
  5  6  1  0
  6  7  2  0
  7  8  1  0
  8  9  3  0
  7 10  1  0
 10 11  2  0
  3 12  1  0
 12 13  1  0
 13 14  3  0
 12 15  2  0
 15 16  1  0
 16 17  1  0
 17 18  1  0
 18 19  2  0
 19 20  1  0
 20 21  2  0
 21 22  1  0
 21 23  1  0
 23 24  1  0
 24 25  1  0
 23 26  2  0
 16  2  1  0
 26 18  1  0
 11  4  1  0
M  END
>  <assay_chembl_id>  (319) 
CHEMBL1937839

>  <assay_description>  (319) 
Displacement of [17-alpha-methyl-3H]-mibolerone from human androgen receptor expressed in HEK293 derived FreeStyle293F cells after 3 hrs

>  <parent_molecule_chembl_id>  (319) 
CHEMBL1934447

>  <canonical_smiles>  (319) 
Cc1c(-c2ccc(C#N)cc2)c(C#N)cn1Cc1cnc(Cl)c(CO)c1

>  <standard_type>  (319) 
IC50

>  <standard_relation>  (319) 
=

>  <standard_value>  (319) 
490.0

>  <standard_units>  (319) 
nM

>  <target_pref_name>  (319) 
Androgen Receptor

>  <target_chembl_id>  (319) 
CHEMBL1871

>  <target_organism>  (319) 
Homo sapiens

>  <pchembl_median>  (319) 
5.82

$$$$
CHEMBL1934448
     RDKit          2D

 26 28  0  0  0  0  0  0  0  0999 V2000
    4.6740   -4.8322    0.0000 C   0  0  0  0  0  0  0  0  0  0  0  0
    3.3037   -4.2221    0.0000 C   0  0  0  0  0  0  0  0  0  0  0  0
    2.9918   -2.7549    0.0000 C   0  0  0  0  0  0  0  0  0  0  0  0
    3.9955   -1.6402    0.0000 C   0  0  0  0  0  0  0  0  0  0  0  0
    4.9992   -0.5254    0.0000 N   0  0  0  0  0  0  0  0  0  0  0  0
    1.5000   -2.5981    0.0000 C   0  0  0  0  0  0  0  0  0  0  0  0
    0.7500   -1.2990    0.0000 C   0  0  0  0  0  0  0  0  0  0  0  0
    1.5000    0.0000    0.0000 C   0  0  0  0  0  0  0  0  0  0  0  0
    0.7500    1.2990    0.0000 C   0  0  0  0  0  0  0  0  0  0  0  0
   -0.7500    1.2990    0.0000 C   0  0  0  0  0  0  0  0  0  0  0  0
   -1.5000    2.5981    0.0000 C   0  0  0  0  0  0  0  0  0  0  0  0
   -2.2500    3.8971    0.0000 N   0  0  0  0  0  0  0  0  0  0  0  0
   -1.5000    0.0000    0.0000 C   0  0  0  0  0  0  0  0  0  0  0  0
   -0.7500   -1.2990    0.0000 C   0  0  0  0  0  0  0  0  0  0  0  0
    0.8899   -3.9684    0.0000 C   0  0  0  0  0  0  0  0  0  0  0  0
    2.0046   -4.9721    0.0000 N   0  0  0  0  0  0  0  0  0  0  0  0
    1.8478   -6.4639    0.0000 C   0  0  0  0  0  0  0  0  0  0  0  0
    0.4775   -7.0740    0.0000 C   0  0  0  0  0  0  0  0  0  0  0  0
   -0.7360   -6.1923    0.0000 C   0  0  0  0  0  0  0  0  0  0  0  0
   -2.1063   -6.8024    0.0000 N   0  0  0  0  0  0  0  0  0  0  0  0
   -2.2631   -8.2942    0.0000 C   0  0  0  0  0  0  0  0  0  0  0  0
   -3.6335   -8.9043    0.0000 Cl  0  0  0  0  0  0  0  0  0  0  0  0
   -1.0496   -9.1759    0.0000 C   0  0  0  0  0  0  0  0  0  0  0  0
   -1.2064  -10.6676    0.0000 C   0  0  0  0  0  0  0  0  0  0  0  0
    0.0071  -11.5493    0.0000 O   0  0  0  0  0  0  0  0  0  0  0  0
    0.3207   -8.5658    0.0000 C   0  0  0  0  0  0  0  0  0  0  0  0
  1  2  1  0
  2  3  2  0
  3  4  1  0
  4  5  3  0
  3  6  1  0
  6  7  1  0
  7  8  2  0
  8  9  1  0
  9 10  2  0
 10 11  1  0
 11 12  3  0
 10 13  1  0
 13 14  2  0
  6 15  2  0
 15 16  1  0
 16 17  1  0
 17 18  1  0
 18 19  2  0
 19 20  1  0
 20 21  2  0
 21 22  1  0
 21 23  1  0
 23 24  1  0
 24 25  1  0
 23 26  2  0
 16  2  1  0
 26 18  1  0
 14  7  1  0
M  END
>  <assay_chembl_id>  (320) 
CHEMBL1937839

>  <assay_description>  (320) 
Displacement of [17-alpha-methyl-3H]-mibolerone from human androgen receptor expressed in HEK293 derived FreeStyle293F cells after 3 hrs

>  <parent_molecule_chembl_id>  (320) 
CHEMBL1934448

>  <canonical_smiles>  (320) 
Cc1c(C#N)c(-c2ccc(C#N)cc2)cn1Cc1cnc(Cl)c(CO)c1

>  <standard_type>  (320) 
IC50

>  <standard_relation>  (320) 
=

>  <standard_value>  (320) 
78.0

>  <standard_units>  (320) 
nM

>  <target_pref_name>  (320) 
Androgen Receptor

>  <target_chembl_id>  (320) 
CHEMBL1871

>  <target_organism>  (320) 
Homo sapiens

>  <pchembl_median>  (320) 
6.09

$$$$
CHEMBL1946807
     RDKit          2D

 35 38  0  0  0  0  0  0  0  0999 V2000
    4.8308   -6.3240    0.0000 C   0  0  0  0  0  0  0  0  0  0  0  0
    4.6740   -4.8322    0.0000 C   0  0  0  0  0  0  0  0  0  0  0  0
    3.3037   -4.2221    0.0000 C   0  0  0  0  0  0  0  0  0  0  0  0
    2.0046   -4.9721    0.0000 N   0  0  0  0  0  0  0  0  0  0  0  0
    0.8899   -3.9684    0.0000 N   0  0  0  0  0  0  0  0  0  0  0  0
    1.5000   -2.5981    0.0000 C   0  0  0  0  0  0  0  0  0  0  0  0
    0.7500   -1.2990    0.0000 C   0  0  0  0  0  0  0  0  0  0  0  0
    1.5000    0.0000    0.0000 C   0  0  0  0  0  0  0  0  0  0  0  0
    0.7500    1.2990    0.0000 C   0  0  0  0  0  0  0  0  0  0  0  0
   -0.7500    1.2990    0.0000 C   0  0  0  0  0  0  0  0  0  0  0  0
   -1.5000    0.0000    0.0000 C   0  0  0  0  0  0  0  0  0  0  0  0
   -3.0000    0.0000    0.0000 F   0  0  0  0  0  0  0  0  0  0  0  0
   -0.7500   -1.2990    0.0000 C   0  0  0  0  0  0  0  0  0  0  0  0
    2.9918   -2.7549    0.0000 O   0  0  0  0  0  0  0  0  0  0  0  0
    5.8875   -3.9505    0.0000 N   0  0  0  0  0  0  0  0  0  0  0  0
    5.8875   -2.4505    0.0000 C   0  0  0  0  0  0  0  0  0  0  0  0
    7.3141   -1.9870    0.0000 C   0  0  0  0  0  0  0  0  0  0  0  0
    6.7040   -0.6167    0.0000 C   0  0  0  0  0  0  0  0  0  0  0  0
    8.6131   -1.2370    0.0000 C   0  0  0  0  0  0  0  0  0  0  0  0
    8.1958   -3.2005    0.0000 C   0  0  0  0  0  0  0  0  0  0  0  0
    9.6958   -3.2005    0.0000 O   0  0  0  0  0  0  0  0  0  0  0  0
   10.4458   -4.4996    0.0000 C   0  0  0  0  0  0  0  0  0  0  0  0
    9.6958   -5.7986    0.0000 C   0  0  0  0  0  0  0  0  0  0  0  0
   10.4458   -7.0976    0.0000 C   0  0  0  0  0  0  0  0  0  0  0  0
   11.9458   -7.0976    0.0000 C   0  0  0  0  0  0  0  0  0  0  0  0
   12.6958   -8.3967    0.0000 C   0  0  0  0  0  0  0  0  0  0  0  0
   13.4458   -9.6957    0.0000 N   0  0  0  0  0  0  0  0  0  0  0  0
   12.6958   -5.7986    0.0000 C   0  0  0  0  0  0  0  0  0  0  0  0
   14.1958   -5.7986    0.0000 C   0  0  0  0  0  0  0  0  0  0  0  0
   15.6958   -5.7986    0.0000 F   0  0  0  0  0  0  0  0  0  0  0  0
   14.1958   -4.2986    0.0000 F   0  0  0  0  0  0  0  0  0  0  0  0
   14.1958   -7.2986    0.0000 F   0  0  0  0  0  0  0  0  0  0  0  0
   11.9458   -4.4996    0.0000 C   0  0  0  0  0  0  0  0  0  0  0  0
    7.3141   -4.4140    0.0000 C   0  0  0  0  0  0  0  0  0  0  0  0
    7.7776   -5.8406    0.0000 O   0  0  0  0  0  0  0  0  0  0  0  0
  1  2  1  0
  2  3  1  0
  3  4  2  0
  4  5  1  0
  5  6  2  0
  6  7  1  0
  7  8  2  0
  8  9  1  0
  9 10  2  0
 10 11  1  0
 11 12  1  0
 11 13  2  0
  6 14  1  0
  2 15  1  0
 15 16  1  0
 16 17  1  0
 17 18  1  0
 17 19  1  0
 17 20  1  0
 20 21  1  0
 21 22  1  0
 22 23  2  0
 23 24  1  0
 24 25  2  0
 25 26  1  0
 26 27  3  0
 25 28  1  0
 28 29  1  0
 29 30  1  0
 29 31  1  0
 29 32  1  0
 28 33  2  0
 20 34  1  0
 34 35  2  0
 14  3  1  0
 34 15  1  0
 13  7  1  0
 33 22  1  0
M  END
>  <assay_chembl_id>  (321) 
CHEMBL1947977

>  <assay_description>  (321) 
Antagonist activity at androgen receptor expressed in human LNAR cells assessed as inhibition of R1881-induced luciferase activity by spectrophotometry

>  <parent_molecule_chembl_id>  (321) 
CHEMBL1946807

>  <canonical_smiles>  (321) 
CC(c1nnc(-c2cccc(F)c2)o1)N1CC(C)(C)C(Oc2ccc(C#N)c(C(F)(F)F)c2)C1=O

>  <standard_type>  (321) 
IC50

>  <standard_relation>  (321) 
=

>  <standard_value>  (321) 
77.0

>  <standard_units>  (321) 
nM

>  <target_pref_name>  (321) 
Androgen Receptor

>  <target_chembl_id>  (321) 
CHEMBL1871

>  <target_organism>  (321) 
Homo sapiens

>  <pchembl_median>  (321) 
9.08

$$$$
CHEMBL1946809
     RDKit          2D

 33 36  0  0  0  0  0  0  0  0999 V2000
    7.3097   -8.6980    0.0000 C   0  0  0  0  0  0  0  0  0  0  0  0
    5.8179   -8.5412    0.0000 C   0  0  0  0  0  0  0  0  0  0  0  0
    5.8179  -10.0412    0.0000 C   0  0  0  0  0  0  0  0  0  0  0  0
    6.1298   -7.0740    0.0000 C   0  0  0  0  0  0  0  0  0  0  0  0
    4.8308   -6.3240    0.0000 N   0  0  0  0  0  0  0  0  0  0  0  0
    4.6740   -4.8322    0.0000 C   0  0  0  0  0  0  0  0  0  0  0  0
    3.3037   -4.2221    0.0000 C   0  0  0  0  0  0  0  0  0  0  0  0
    2.0046   -4.9721    0.0000 N   0  0  0  0  0  0  0  0  0  0  0  0
    0.8899   -3.9684    0.0000 N   0  0  0  0  0  0  0  0  0  0  0  0
    1.5000   -2.5981    0.0000 C   0  0  0  0  0  0  0  0  0  0  0  0
    0.7500   -1.2990    0.0000 C   0  0  0  0  0  0  0  0  0  0  0  0
    1.5000    0.0000    0.0000 C   0  0  0  0  0  0  0  0  0  0  0  0
    0.7500    1.2990    0.0000 C   0  0  0  0  0  0  0  0  0  0  0  0
   -0.7500    1.2990    0.0000 C   0  0  0  0  0  0  0  0  0  0  0  0
   -1.5000    0.0000    0.0000 C   0  0  0  0  0  0  0  0  0  0  0  0
   -0.7500   -1.2990    0.0000 C   0  0  0  0  0  0  0  0  0  0  0  0
    2.9918   -2.7549    0.0000 O   0  0  0  0  0  0  0  0  0  0  0  0
    3.7160   -7.3277    0.0000 C   0  0  0  0  0  0  0  0  0  0  0  0
    2.2488   -7.0158    0.0000 O   0  0  0  0  0  0  0  0  0  0  0  0
    4.3261   -8.6980    0.0000 C   0  0  0  0  0  0  0  0  0  0  0  0
    3.5761   -9.9970    0.0000 O   0  0  0  0  0  0  0  0  0  0  0  0
    2.0761   -9.9970    0.0000 C   0  0  0  0  0  0  0  0  0  0  0  0
    1.3261   -8.6980    0.0000 C   0  0  0  0  0  0  0  0  0  0  0  0
   -0.1739   -8.6980    0.0000 C   0  0  0  0  0  0  0  0  0  0  0  0
   -0.9239   -9.9970    0.0000 C   0  0  0  0  0  0  0  0  0  0  0  0
   -2.4239   -9.9970    0.0000 C   0  0  0  0  0  0  0  0  0  0  0  0
   -3.9239   -9.9970    0.0000 N   0  0  0  0  0  0  0  0  0  0  0  0
   -0.1739  -11.2961    0.0000 C   0  0  0  0  0  0  0  0  0  0  0  0
   -0.9239  -12.5951    0.0000 C   0  0  0  0  0  0  0  0  0  0  0  0
   -1.6739  -13.8941    0.0000 F   0  0  0  0  0  0  0  0  0  0  0  0
    0.3752  -13.3451    0.0000 F   0  0  0  0  0  0  0  0  0  0  0  0
   -2.2229  -11.8451    0.0000 F   0  0  0  0  0  0  0  0  0  0  0  0
    1.3261  -11.2961    0.0000 C   0  0  0  0  0  0  0  0  0  0  0  0
  1  2  1  0
  2  3  1  0
  2  4  1  0
  4  5  1  0
  5  6  1  0
  6  7  1  0
  7  8  2  0
  8  9  1  0
  9 10  2  0
 10 11  1  0
 11 12  2  0
 12 13  1  0
 13 14  2  0
 14 15  1  0
 15 16  2  0
 10 17  1  0
  5 18  1  0
 18 19  2  0
 18 20  1  0
 20 21  1  1
 21 22  1  0
 22 23  2  0
 23 24  1  0
 24 25  2  0
 25 26  1  0
 26 27  3  0
 25 28  1  0
 28 29  1  0
 29 30  1  0
 29 31  1  0
 29 32  1  0
 28 33  2  0
 20  2  1  0
 33 22  1  0
 17  7  1  0
 16 11  1  0
M  END
>  <assay_chembl_id>  (322) 
CHEMBL1947977

>  <assay_description>  (322) 
Antagonist activity at androgen receptor expressed in human LNAR cells assessed as inhibition of R1881-induced luciferase activity by spectrophotometry

>  <parent_molecule_chembl_id>  (322) 
CHEMBL1946809

>  <canonical_smiles>  (322) 
CC1(C)CN(Cc2nnc(-c3ccccc3)o2)C(=O)[C@@H]1Oc1ccc(C#N)c(C(F)(F)F)c1

>  <standard_type>  (322) 
IC50

>  <standard_relation>  (322) 
=

>  <standard_value>  (322) 
71.0

>  <standard_units>  (322) 
nM

>  <target_pref_name>  (322) 
Androgen Receptor

>  <target_chembl_id>  (322) 
CHEMBL1871

>  <target_organism>  (322) 
Homo sapiens

>  <pchembl_median>  (322) 
7.7

$$$$
CHEMBL1946806
     RDKit          2D

 28 30  0  0  0  0  0  0  0  0999 V2000
   -4.6196   -9.3946    0.0000 C   0  0  0  0  0  0  0  0  0  0  0  0
   -3.1196   -9.3946    0.0000 C   0  0  0  0  0  0  0  0  0  0  0  0
   -2.2379  -10.6081    0.0000 N   0  0  0  0  0  0  0  0  0  0  0  0
   -0.8113  -10.1446    0.0000 N   0  0  0  0  0  0  0  0  0  0  0  0
   -0.8113   -8.6446    0.0000 C   0  0  0  0  0  0  0  0  0  0  0  0
    0.4022   -7.7629    0.0000 C   0  0  0  0  0  0  0  0  0  0  0  0
    0.2454   -6.2711    0.0000 N   0  0  0  0  0  0  0  0  0  0  0  0
   -1.0537   -5.5211    0.0000 C   0  0  0  0  0  0  0  0  0  0  0  0
   -0.7418   -4.0539    0.0000 C   0  0  0  0  0  0  0  0  0  0  0  0
   -2.2336   -3.8971    0.0000 C   0  0  0  0  0  0  0  0  0  0  0  0
   -0.7418   -2.5539    0.0000 C   0  0  0  0  0  0  0  0  0  0  0  0
    0.7500   -3.8971    0.0000 C   0  0  0  0  0  0  0  0  0  0  0  0
    1.5000   -2.5981    0.0000 O   0  0  0  0  0  0  0  0  0  0  0  0
    0.7500   -1.2990    0.0000 C   0  0  0  0  0  0  0  0  0  0  0  0
    1.5000    0.0000    0.0000 C   0  0  0  0  0  0  0  0  0  0  0  0
    0.7500    1.2990    0.0000 C   0  0  0  0  0  0  0  0  0  0  0  0
   -0.7500    1.2990    0.0000 C   0  0  0  0  0  0  0  0  0  0  0  0
   -1.5000    2.5981    0.0000 C   0  0  0  0  0  0  0  0  0  0  0  0
   -2.2500    3.8971    0.0000 N   0  0  0  0  0  0  0  0  0  0  0  0
   -1.5000    0.0000    0.0000 C   0  0  0  0  0  0  0  0  0  0  0  0
   -3.0000    0.0000    0.0000 C   0  0  0  0  0  0  0  0  0  0  0  0
   -4.5000    0.0000    0.0000 F   0  0  0  0  0  0  0  0  0  0  0  0
   -3.0000   -1.5000    0.0000 F   0  0  0  0  0  0  0  0  0  0  0  0
   -3.0000    1.5000    0.0000 F   0  0  0  0  0  0  0  0  0  0  0  0
   -0.7500   -1.2990    0.0000 C   0  0  0  0  0  0  0  0  0  0  0  0
    1.3601   -5.2674    0.0000 C   0  0  0  0  0  0  0  0  0  0  0  0
    2.8273   -5.5793    0.0000 O   0  0  0  0  0  0  0  0  0  0  0  0
   -2.2379   -8.1811    0.0000 O   0  0  0  0  0  0  0  0  0  0  0  0
  1  2  1  0
  2  3  2  0
  3  4  1  0
  4  5  2  0
  5  6  1  0
  6  7  1  0
  7  8  1  0
  8  9  1  0
  9 10  1  0
  9 11  1  0
  9 12  1  0
 12 13  1  1
 13 14  1  0
 14 15  2  0
 15 16  1  0
 16 17  2  0
 17 18  1  0
 18 19  3  0
 17 20  1  0
 20 21  1  0
 21 22  1  0
 21 23  1  0
 21 24  1  0
 20 25  2  0
 12 26  1  0
 26 27  2  0
  5 28  1  0
 28  2  1  0
 26  7  1  0
 25 14  1  0
M  END
>  <assay_chembl_id>  (323) 
CHEMBL1947977

>  <assay_description>  (323) 
Antagonist activity at androgen receptor expressed in human LNAR cells assessed as inhibition of R1881-induced luciferase activity by spectrophotometry

>  <parent_molecule_chembl_id>  (323) 
CHEMBL1946806

>  <canonical_smiles>  (323) 
Cc1nnc(CN2CC(C)(C)[C@@H](Oc3ccc(C#N)c(C(F)(F)F)c3)C2=O)o1

>  <standard_type>  (323) 
IC50

>  <standard_relation>  (323) 
=

>  <standard_value>  (323) 
633.0

>  <standard_units>  (323) 
nM

>  <target_pref_name>  (323) 
Androgen Receptor

>  <target_chembl_id>  (323) 
CHEMBL1871

>  <target_organism>  (323) 
Homo sapiens

>  <pchembl_median>  (323) 
8.15

$$$$
CHEMBL1946622
     RDKit          2D

 21 22  0  0  0  0  0  0  0  0999 V2000
   -2.2336   -3.8971    0.0000 C   0  0  0  0  0  0  0  0  0  0  0  0
   -0.7418   -4.0539    0.0000 C   0  0  0  0  0  0  0  0  0  0  0  0
   -0.7418   -2.5539    0.0000 C   0  0  0  0  0  0  0  0  0  0  0  0
   -1.0537   -5.5211    0.0000 C   0  0  0  0  0  0  0  0  0  0  0  0
    0.2454   -6.2711    0.0000 N   0  0  0  0  0  0  0  0  0  0  0  0
    1.3601   -5.2674    0.0000 C   0  0  0  0  0  0  0  0  0  0  0  0
    2.8273   -5.5793    0.0000 O   0  0  0  0  0  0  0  0  0  0  0  0
    0.7500   -3.8971    0.0000 C   0  0  0  0  0  0  0  0  0  0  0  0
    1.5000   -2.5981    0.0000 O   0  0  0  0  0  0  0  0  0  0  0  0
    0.7500   -1.2990    0.0000 C   0  0  0  0  0  0  0  0  0  0  0  0
    1.5000    0.0000    0.0000 C   0  0  0  0  0  0  0  0  0  0  0  0
    0.7500    1.2990    0.0000 C   0  0  0  0  0  0  0  0  0  0  0  0
   -0.7500    1.2990    0.0000 C   0  0  0  0  0  0  0  0  0  0  0  0
   -1.5000    2.5981    0.0000 C   0  0  0  0  0  0  0  0  0  0  0  0
   -2.2500    3.8971    0.0000 N   0  0  0  0  0  0  0  0  0  0  0  0
   -1.5000    0.0000    0.0000 C   0  0  0  0  0  0  0  0  0  0  0  0
   -3.0000    0.0000    0.0000 C   0  0  0  0  0  0  0  0  0  0  0  0
   -4.5000    0.0000    0.0000 F   0  0  0  0  0  0  0  0  0  0  0  0
   -3.0000   -1.5000    0.0000 F   0  0  0  0  0  0  0  0  0  0  0  0
   -3.0000    1.5000    0.0000 F   0  0  0  0  0  0  0  0  0  0  0  0
   -0.7500   -1.2990    0.0000 C   0  0  0  0  0  0  0  0  0  0  0  0
  1  2  1  0
  2  3  1  0
  2  4  1  0
  4  5  1  0
  5  6  1  0
  6  7  2  0
  6  8  1  0
  8  9  1  1
  9 10  1  0
 10 11  2  0
 11 12  1  0
 12 13  2  0
 13 14  1  0
 14 15  3  0
 13 16  1  0
 16 17  1  0
 17 18  1  0
 17 19  1  0
 17 20  1  0
 16 21  2  0
  8  2  1  0
 21 10  1  0
M  END
>  <assay_chembl_id>  (324) 
CHEMBL1947977

>  <assay_description>  (324) 
Antagonist activity at androgen receptor expressed in human LNAR cells assessed as inhibition of R1881-induced luciferase activity by spectrophotometry

>  <parent_molecule_chembl_id>  (324) 
CHEMBL1946622

>  <canonical_smiles>  (324) 
CC1(C)CNC(=O)[C@@H]1Oc1ccc(C#N)c(C(F)(F)F)c1

>  <standard_type>  (324) 
IC50

>  <standard_relation>  (324) 
=

>  <standard_value>  (324) 
105.0

>  <standard_units>  (324) 
nM

>  <target_pref_name>  (324) 
Androgen Receptor

>  <target_chembl_id>  (324) 
CHEMBL1871

>  <target_organism>  (324) 
Homo sapiens

>  <pchembl_median>  (324) 
8.96

$$$$
CHEMBL1946805
     RDKit          2D

 25 26  0  0  0  0  0  0  0  0999 V2000
   -5.0078   -5.8597    0.0000 C   0  0  0  0  0  0  0  0  0  0  0  0
   -3.6375   -5.2496    0.0000 C   0  0  0  0  0  0  0  0  0  0  0  0
   -3.4807   -3.7578    0.0000 O   0  0  0  0  0  0  0  0  0  0  0  0
   -2.4240   -6.1312    0.0000 C   0  0  0  0  0  0  0  0  0  0  0  0
   -1.0537   -5.5211    0.0000 N   0  0  0  0  0  0  0  0  0  0  0  0
    0.2454   -6.2711    0.0000 C   0  0  0  0  0  0  0  0  0  0  0  0
    1.3601   -5.2674    0.0000 C   0  0  0  0  0  0  0  0  0  0  0  0
    2.6591   -4.5174    0.0000 C   0  0  0  0  0  0  0  0  0  0  0  0
    2.2418   -6.4810    0.0000 C   0  0  0  0  0  0  0  0  0  0  0  0
    0.7500   -3.8971    0.0000 C   0  0  0  0  0  0  0  0  0  0  0  0
    1.5000   -2.5981    0.0000 O   0  0  0  0  0  0  0  0  0  0  0  0
    0.7500   -1.2990    0.0000 C   0  0  0  0  0  0  0  0  0  0  0  0
    1.5000    0.0000    0.0000 C   0  0  0  0  0  0  0  0  0  0  0  0
    0.7500    1.2990    0.0000 C   0  0  0  0  0  0  0  0  0  0  0  0
   -0.7500    1.2990    0.0000 C   0  0  0  0  0  0  0  0  0  0  0  0
   -1.5000    2.5981    0.0000 C   0  0  0  0  0  0  0  0  0  0  0  0
   -2.2500    3.8971    0.0000 N   0  0  0  0  0  0  0  0  0  0  0  0
   -1.5000    0.0000    0.0000 C   0  0  0  0  0  0  0  0  0  0  0  0
   -3.0000    0.0000    0.0000 C   0  0  0  0  0  0  0  0  0  0  0  0
   -4.5000    0.0000    0.0000 F   0  0  0  0  0  0  0  0  0  0  0  0
   -3.0000   -1.5000    0.0000 F   0  0  0  0  0  0  0  0  0  0  0  0
   -3.0000    1.5000    0.0000 F   0  0  0  0  0  0  0  0  0  0  0  0
   -0.7500   -1.2990    0.0000 C   0  0  0  0  0  0  0  0  0  0  0  0
   -0.7418   -4.0539    0.0000 C   0  0  0  0  0  0  0  0  0  0  0  0
   -1.7455   -2.9392    0.0000 O   0  0  0  0  0  0  0  0  0  0  0  0
  1  2  1  0
  2  3  2  0
  2  4  1  0
  4  5  1  0
  5  6  1  0
  6  7  1  0
  7  8  1  0
  7  9  1  0
  7 10  1  0
 10 11  1  6
 11 12  1  0
 12 13  2  0
 13 14  1  0
 14 15  2  0
 15 16  1  0
 16 17  3  0
 15 18  1  0
 18 19  1  0
 19 20  1  0
 19 21  1  0
 19 22  1  0
 18 23  2  0
 10 24  1  0
 24 25  2  0
 24  5  1  0
 23 12  1  0
M  END
>  <assay_chembl_id>  (325) 
CHEMBL1947977

>  <assay_description>  (325) 
Antagonist activity at androgen receptor expressed in human LNAR cells assessed as inhibition of R1881-induced luciferase activity by spectrophotometry

>  <parent_molecule_chembl_id>  (325) 
CHEMBL1946805

>  <canonical_smiles>  (325) 
CC(=O)CN1CC(C)(C)[C@@H](Oc2ccc(C#N)c(C(F)(F)F)c2)C1=O

>  <standard_type>  (325) 
IC50

>  <standard_relation>  (325) 
=

>  <standard_value>  (325) 
266.0

>  <standard_units>  (325) 
nM

>  <target_pref_name>  (325) 
Androgen Receptor

>  <target_chembl_id>  (325) 
CHEMBL1871

>  <target_organism>  (325) 
Homo sapiens

>  <pchembl_median>  (325) 
8.85

$$$$
CHEMBL1946811
     RDKit          2D

 25 26  0  0  0  0  0  0  0  0999 V2000
   -2.2336   -3.8971    0.0000 C   0  0  0  0  0  0  0  0  0  0  0  0
   -0.7418   -4.0539    0.0000 C   0  0  0  0  0  0  0  0  0  0  0  0
   -0.7418   -2.5539    0.0000 C   0  0  0  0  0  0  0  0  0  0  0  0
   -1.0537   -5.5211    0.0000 C   0  0  0  0  0  0  0  0  0  0  0  0
    0.2454   -6.2711    0.0000 N   0  0  0  0  0  0  0  0  0  0  0  0
    0.4022   -7.7629    0.0000 C   0  0  0  0  0  0  0  0  0  0  0  0
   -0.8113   -8.6446    0.0000 C   0  0  0  0  0  0  0  0  0  0  0  0
   -0.6546  -10.1364    0.0000 C   0  0  0  0  0  0  0  0  0  0  0  0
   -0.4978  -11.6282    0.0000 N   0  0  0  0  0  0  0  0  0  0  0  0
    1.3601   -5.2674    0.0000 C   0  0  0  0  0  0  0  0  0  0  0  0
    2.8273   -5.5793    0.0000 O   0  0  0  0  0  0  0  0  0  0  0  0
    0.7500   -3.8971    0.0000 C   0  0  0  0  0  0  0  0  0  0  0  0
    1.5000   -2.5981    0.0000 O   0  0  0  0  0  0  0  0  0  0  0  0
    0.7500   -1.2990    0.0000 C   0  0  0  0  0  0  0  0  0  0  0  0
    1.5000    0.0000    0.0000 C   0  0  0  0  0  0  0  0  0  0  0  0
    0.7500    1.2990    0.0000 C   0  0  0  0  0  0  0  0  0  0  0  0
   -0.7500    1.2990    0.0000 C   0  0  0  0  0  0  0  0  0  0  0  0
   -1.5000    2.5981    0.0000 C   0  0  0  0  0  0  0  0  0  0  0  0
   -2.2500    3.8971    0.0000 N   0  0  0  0  0  0  0  0  0  0  0  0
   -1.5000    0.0000    0.0000 C   0  0  0  0  0  0  0  0  0  0  0  0
   -3.0000    0.0000    0.0000 C   0  0  0  0  0  0  0  0  0  0  0  0
   -4.5000    0.0000    0.0000 F   0  0  0  0  0  0  0  0  0  0  0  0
   -3.0000   -1.5000    0.0000 F   0  0  0  0  0  0  0  0  0  0  0  0
   -3.0000    1.5000    0.0000 F   0  0  0  0  0  0  0  0  0  0  0  0
   -0.7500   -1.2990    0.0000 C   0  0  0  0  0  0  0  0  0  0  0  0
  1  2  1  0
  2  3  1  0
  2  4  1  0
  4  5  1  0
  5  6  1  0
  6  7  1  0
  7  8  1  0
  8  9  3  0
  5 10  1  0
 10 11  2  0
 10 12  1  0
 12 13  1  1
 13 14  1  0
 14 15  2  0
 15 16  1  0
 16 17  2  0
 17 18  1  0
 18 19  3  0
 17 20  1  0
 20 21  1  0
 21 22  1  0
 21 23  1  0
 21 24  1  0
 20 25  2  0
 12  2  1  0
 25 14  1  0
M  END
>  <assay_chembl_id>  (326) 
CHEMBL1947977

>  <assay_description>  (326) 
Antagonist activity at androgen receptor expressed in human LNAR cells assessed as inhibition of R1881-induced luciferase activity by spectrophotometry

>  <parent_molecule_chembl_id>  (326) 
CHEMBL1946811

>  <canonical_smiles>  (326) 
CC1(C)CN(CCC#N)C(=O)[C@@H]1Oc1ccc(C#N)c(C(F)(F)F)c1

>  <standard_type>  (326) 
IC50

>  <standard_relation>  (326) 
=

>  <standard_value>  (326) 
131.0

>  <standard_units>  (326) 
nM

>  <target_pref_name>  (326) 
Androgen Receptor

>  <target_chembl_id>  (326) 
CHEMBL1871

>  <target_organism>  (326) 
Homo sapiens

>  <pchembl_median>  (326) 
7.47

$$$$
CHEMBL1946812
     RDKit          2D

 24 25  0  0  0  0  0  0  0  0999 V2000
   -2.2336   -3.8971    0.0000 C   0  0  0  0  0  0  0  0  0  0  0  0
   -0.7418   -4.0539    0.0000 C   0  0  0  0  0  0  0  0  0  0  0  0
   -0.7418   -2.5539    0.0000 C   0  0  0  0  0  0  0  0  0  0  0  0
   -1.0537   -5.5211    0.0000 C   0  0  0  0  0  0  0  0  0  0  0  0
    0.2454   -6.2711    0.0000 N   0  0  0  0  0  0  0  0  0  0  0  0
    0.4022   -7.7629    0.0000 C   0  0  0  0  0  0  0  0  0  0  0  0
   -0.8113   -8.6446    0.0000 C   0  0  0  0  0  0  0  0  0  0  0  0
   -0.6546  -10.1364    0.0000 O   0  0  0  0  0  0  0  0  0  0  0  0
    1.3601   -5.2674    0.0000 C   0  0  0  0  0  0  0  0  0  0  0  0
    2.8273   -5.5793    0.0000 O   0  0  0  0  0  0  0  0  0  0  0  0
    0.7500   -3.8971    0.0000 C   0  0  0  0  0  0  0  0  0  0  0  0
    1.5000   -2.5981    0.0000 O   0  0  0  0  0  0  0  0  0  0  0  0
    0.7500   -1.2990    0.0000 C   0  0  0  0  0  0  0  0  0  0  0  0
    1.5000    0.0000    0.0000 C   0  0  0  0  0  0  0  0  0  0  0  0
    0.7500    1.2990    0.0000 C   0  0  0  0  0  0  0  0  0  0  0  0
   -0.7500    1.2990    0.0000 C   0  0  0  0  0  0  0  0  0  0  0  0
   -1.5000    2.5981    0.0000 C   0  0  0  0  0  0  0  0  0  0  0  0
   -2.2500    3.8971    0.0000 N   0  0  0  0  0  0  0  0  0  0  0  0
   -1.5000    0.0000    0.0000 C   0  0  0  0  0  0  0  0  0  0  0  0
   -3.0000    0.0000    0.0000 C   0  0  0  0  0  0  0  0  0  0  0  0
   -4.5000    0.0000    0.0000 F   0  0  0  0  0  0  0  0  0  0  0  0
   -3.0000   -1.5000    0.0000 F   0  0  0  0  0  0  0  0  0  0  0  0
   -3.0000    1.5000    0.0000 F   0  0  0  0  0  0  0  0  0  0  0  0
   -0.7500   -1.2990    0.0000 C   0  0  0  0  0  0  0  0  0  0  0  0
  1  2  1  0
  2  3  1  0
  2  4  1  0
  4  5  1  0
  5  6  1  0
  6  7  1  0
  7  8  1  0
  5  9  1  0
  9 10  2  0
  9 11  1  0
 11 12  1  1
 12 13  1  0
 13 14  2  0
 14 15  1  0
 15 16  2  0
 16 17  1  0
 17 18  3  0
 16 19  1  0
 19 20  1  0
 20 21  1  0
 20 22  1  0
 20 23  1  0
 19 24  2  0
 11  2  1  0
 24 13  1  0
M  END
>  <assay_chembl_id>  (327) 
CHEMBL1947977

>  <assay_description>  (327) 
Antagonist activity at androgen receptor expressed in human LNAR cells assessed as inhibition of R1881-induced luciferase activity by spectrophotometry

>  <parent_molecule_chembl_id>  (327) 
CHEMBL1946812

>  <canonical_smiles>  (327) 
CC1(C)CN(CCO)C(=O)[C@@H]1Oc1ccc(C#N)c(C(F)(F)F)c1

>  <standard_type>  (327) 
IC50

>  <standard_relation>  (327) 
=

>  <standard_value>  (327) 
263.0

>  <standard_units>  (327) 
nM

>  <target_pref_name>  (327) 
Androgen Receptor

>  <target_chembl_id>  (327) 
CHEMBL1871

>  <target_organism>  (327) 
Homo sapiens

>  <pchembl_median>  (327) 
9.0

$$$$
CHEMBL1947177
     RDKit          2D

 25 26  0  0  0  0  0  0  0  0999 V2000
   -3.6375   -5.2496    0.0000 C   0  0  0  0  0  0  0  0  0  0  0  0
   -2.4240   -6.1312    0.0000 C   0  0  0  0  0  0  0  0  0  0  0  0
   -2.5808   -7.6230    0.0000 C   0  0  0  0  0  0  0  0  0  0  0  0
   -3.9511   -8.2331    0.0000 O   0  0  0  0  0  0  0  0  0  0  0  0
   -1.0537   -5.5211    0.0000 N   0  0  0  0  0  0  0  0  0  0  0  0
    0.2454   -6.2711    0.0000 C   0  0  0  0  0  0  0  0  0  0  0  0
    1.3601   -5.2674    0.0000 C   0  0  0  0  0  0  0  0  0  0  0  0
    2.6591   -4.5174    0.0000 C   0  0  0  0  0  0  0  0  0  0  0  0
    2.2418   -6.4810    0.0000 C   0  0  0  0  0  0  0  0  0  0  0  0
    0.7500   -3.8971    0.0000 C   0  0  0  0  0  0  0  0  0  0  0  0
    1.5000   -2.5981    0.0000 O   0  0  0  0  0  0  0  0  0  0  0  0
    0.7500   -1.2990    0.0000 C   0  0  0  0  0  0  0  0  0  0  0  0
    1.5000    0.0000    0.0000 C   0  0  0  0  0  0  0  0  0  0  0  0
    0.7500    1.2990    0.0000 C   0  0  0  0  0  0  0  0  0  0  0  0
   -0.7500    1.2990    0.0000 C   0  0  0  0  0  0  0  0  0  0  0  0
   -1.5000    2.5981    0.0000 C   0  0  0  0  0  0  0  0  0  0  0  0
   -2.2500    3.8971    0.0000 N   0  0  0  0  0  0  0  0  0  0  0  0
   -1.5000    0.0000    0.0000 C   0  0  0  0  0  0  0  0  0  0  0  0
   -3.0000    0.0000    0.0000 C   0  0  0  0  0  0  0  0  0  0  0  0
   -4.5000    0.0000    0.0000 F   0  0  0  0  0  0  0  0  0  0  0  0
   -3.0000   -1.5000    0.0000 F   0  0  0  0  0  0  0  0  0  0  0  0
   -3.0000    1.5000    0.0000 F   0  0  0  0  0  0  0  0  0  0  0  0
   -0.7500   -1.2990    0.0000 C   0  0  0  0  0  0  0  0  0  0  0  0
   -0.7418   -4.0539    0.0000 C   0  0  0  0  0  0  0  0  0  0  0  0
   -1.7455   -2.9392    0.0000 O   0  0  0  0  0  0  0  0  0  0  0  0
  1  2  1  0
  2  3  1  0
  3  4  1  0
  2  5  1  0
  5  6  1  0
  6  7  1  0
  7  8  1  0
  7  9  1  0
  7 10  1  0
 10 11  1  6
 11 12  1  0
 12 13  2  0
 13 14  1  0
 14 15  2  0
 15 16  1  0
 16 17  3  0
 15 18  1  0
 18 19  1  0
 19 20  1  0
 19 21  1  0
 19 22  1  0
 18 23  2  0
 10 24  1  0
 24 25  2  0
 24  5  1  0
 23 12  1  0
M  END
>  <assay_chembl_id>  (328) 
CHEMBL1947977

>  <assay_description>  (328) 
Antagonist activity at androgen receptor expressed in human LNAR cells assessed as inhibition of R1881-induced luciferase activity by spectrophotometry

>  <parent_molecule_chembl_id>  (328) 
CHEMBL1947177

>  <canonical_smiles>  (328) 
CC(CO)N1CC(C)(C)[C@@H](Oc2ccc(C#N)c(C(F)(F)F)c2)C1=O

>  <standard_type>  (328) 
IC50

>  <standard_relation>  (328) 
=

>  <standard_value>  (328) 
371.0

>  <standard_units>  (328) 
nM

>  <target_pref_name>  (328) 
Androgen Receptor

>  <target_chembl_id>  (328) 
CHEMBL1871

>  <target_organism>  (328) 
Homo sapiens

>  <pchembl_median>  (328) 
8.66

$$$$
CHEMBL1947178
     RDKit          2D

 26 27  0  0  0  0  0  0  0  0999 V2000
   -2.2336   -3.8971    0.0000 C   0  0  0  0  0  0  0  0  0  0  0  0
   -0.7418   -4.0539    0.0000 C   0  0  0  0  0  0  0  0  0  0  0  0
   -0.7418   -2.5539    0.0000 C   0  0  0  0  0  0  0  0  0  0  0  0
   -1.0537   -5.5211    0.0000 C   0  0  0  0  0  0  0  0  0  0  0  0
    0.2454   -6.2711    0.0000 N   0  0  0  0  0  0  0  0  0  0  0  0
    0.4022   -7.7629    0.0000 C   0  0  0  0  0  0  0  0  0  0  0  0
   -1.0896   -7.9197    0.0000 C   0  0  0  0  0  0  0  0  0  0  0  0
    1.8940   -7.6061    0.0000 C   0  0  0  0  0  0  0  0  0  0  0  0
    0.5590   -9.2547    0.0000 C   0  0  0  0  0  0  0  0  0  0  0  0
    1.9293   -9.8648    0.0000 O   0  0  0  0  0  0  0  0  0  0  0  0
    1.3601   -5.2674    0.0000 C   0  0  0  0  0  0  0  0  0  0  0  0
    2.8273   -5.5793    0.0000 O   0  0  0  0  0  0  0  0  0  0  0  0
    0.7500   -3.8971    0.0000 C   0  0  0  0  0  0  0  0  0  0  0  0
    1.5000   -2.5981    0.0000 O   0  0  0  0  0  0  0  0  0  0  0  0
    0.7500   -1.2990    0.0000 C   0  0  0  0  0  0  0  0  0  0  0  0
    1.5000    0.0000    0.0000 C   0  0  0  0  0  0  0  0  0  0  0  0
    0.7500    1.2990    0.0000 C   0  0  0  0  0  0  0  0  0  0  0  0
   -0.7500    1.2990    0.0000 C   0  0  0  0  0  0  0  0  0  0  0  0
   -1.5000    2.5981    0.0000 C   0  0  0  0  0  0  0  0  0  0  0  0
   -2.2500    3.8971    0.0000 N   0  0  0  0  0  0  0  0  0  0  0  0
   -1.5000    0.0000    0.0000 C   0  0  0  0  0  0  0  0  0  0  0  0
   -3.0000    0.0000    0.0000 C   0  0  0  0  0  0  0  0  0  0  0  0
   -4.5000    0.0000    0.0000 F   0  0  0  0  0  0  0  0  0  0  0  0
   -3.0000   -1.5000    0.0000 F   0  0  0  0  0  0  0  0  0  0  0  0
   -3.0000    1.5000    0.0000 F   0  0  0  0  0  0  0  0  0  0  0  0
   -0.7500   -1.2990    0.0000 C   0  0  0  0  0  0  0  0  0  0  0  0
  1  2  1  0
  2  3  1  0
  2  4  1  0
  4  5  1  0
  5  6  1  0
  6  7  1  0
  6  8  1  0
  6  9  1  0
  9 10  1  0
  5 11  1  0
 11 12  2  0
 11 13  1  0
 13 14  1  1
 14 15  1  0
 15 16  2  0
 16 17  1  0
 17 18  2  0
 18 19  1  0
 19 20  3  0
 18 21  1  0
 21 22  1  0
 22 23  1  0
 22 24  1  0
 22 25  1  0
 21 26  2  0
 13  2  1  0
 26 15  1  0
M  END
>  <assay_chembl_id>  (329) 
CHEMBL1947977

>  <assay_description>  (329) 
Antagonist activity at androgen receptor expressed in human LNAR cells assessed as inhibition of R1881-induced luciferase activity by spectrophotometry

>  <parent_molecule_chembl_id>  (329) 
CHEMBL1947178

>  <canonical_smiles>  (329) 
CC1(C)CN(C(C)(C)CO)C(=O)[C@@H]1Oc1ccc(C#N)c(C(F)(F)F)c1

>  <standard_type>  (329) 
IC50

>  <standard_relation>  (329) 
=

>  <standard_value>  (329) 
761.0

>  <standard_units>  (329) 
nM

>  <target_pref_name>  (329) 
Androgen Receptor

>  <target_chembl_id>  (329) 
CHEMBL1871

>  <target_organism>  (329) 
Homo sapiens

>  <pchembl_median>  (329) 
8.62

$$$$
CHEMBL1947179
     RDKit          2D

 25 26  0  0  0  0  0  0  0  0999 V2000
   -5.0078   -5.8597    0.0000 C   0  0  0  0  0  0  0  0  0  0  0  0
   -3.6375   -5.2496    0.0000 C   0  0  0  0  0  0  0  0  0  0  0  0
   -3.4807   -3.7578    0.0000 O   0  0  0  0  0  0  0  0  0  0  0  0
   -2.4240   -6.1312    0.0000 C   0  0  0  0  0  0  0  0  0  0  0  0
   -1.0537   -5.5211    0.0000 N   0  0  0  0  0  0  0  0  0  0  0  0
    0.2454   -6.2711    0.0000 C   0  0  0  0  0  0  0  0  0  0  0  0
    1.3601   -5.2674    0.0000 C   0  0  0  0  0  0  0  0  0  0  0  0
    2.6591   -4.5174    0.0000 C   0  0  0  0  0  0  0  0  0  0  0  0
    2.2418   -6.4810    0.0000 C   0  0  0  0  0  0  0  0  0  0  0  0
    0.7500   -3.8971    0.0000 C   0  0  0  0  0  0  0  0  0  0  0  0
    1.5000   -2.5981    0.0000 O   0  0  0  0  0  0  0  0  0  0  0  0
    0.7500   -1.2990    0.0000 C   0  0  0  0  0  0  0  0  0  0  0  0
    1.5000    0.0000    0.0000 C   0  0  0  0  0  0  0  0  0  0  0  0
    0.7500    1.2990    0.0000 C   0  0  0  0  0  0  0  0  0  0  0  0
   -0.7500    1.2990    0.0000 C   0  0  0  0  0  0  0  0  0  0  0  0
   -1.5000    2.5981    0.0000 C   0  0  0  0  0  0  0  0  0  0  0  0
   -2.2500    3.8971    0.0000 N   0  0  0  0  0  0  0  0  0  0  0  0
   -1.5000    0.0000    0.0000 C   0  0  0  0  0  0  0  0  0  0  0  0
   -3.0000    0.0000    0.0000 C   0  0  0  0  0  0  0  0  0  0  0  0
   -4.5000    0.0000    0.0000 F   0  0  0  0  0  0  0  0  0  0  0  0
   -3.0000   -1.5000    0.0000 F   0  0  0  0  0  0  0  0  0  0  0  0
   -3.0000    1.5000    0.0000 F   0  0  0  0  0  0  0  0  0  0  0  0
   -0.7500   -1.2990    0.0000 C   0  0  0  0  0  0  0  0  0  0  0  0
   -0.7418   -4.0539    0.0000 C   0  0  0  0  0  0  0  0  0  0  0  0
   -1.7455   -2.9392    0.0000 O   0  0  0  0  0  0  0  0  0  0  0  0
  1  2  1  0
  2  3  1  0
  2  4  1  0
  4  5  1  0
  5  6  1  0
  6  7  1  0
  7  8  1  0
  7  9  1  0
  7 10  1  0
 10 11  1  6
 11 12  1  0
 12 13  2  0
 13 14  1  0
 14 15  2  0
 15 16  1  0
 16 17  3  0
 15 18  1  0
 18 19  1  0
 19 20  1  0
 19 21  1  0
 19 22  1  0
 18 23  2  0
 10 24  1  0
 24 25  2  0
 24  5  1  0
 23 12  1  0
M  END
>  <assay_chembl_id>  (330) 
CHEMBL1947977

>  <assay_description>  (330) 
Antagonist activity at androgen receptor expressed in human LNAR cells assessed as inhibition of R1881-induced luciferase activity by spectrophotometry

>  <parent_molecule_chembl_id>  (330) 
CHEMBL1947179

>  <canonical_smiles>  (330) 
CC(O)CN1CC(C)(C)[C@@H](Oc2ccc(C#N)c(C(F)(F)F)c2)C1=O

>  <standard_type>  (330) 
IC50

>  <standard_relation>  (330) 
=

>  <standard_value>  (330) 
977.0

>  <standard_units>  (330) 
nM

>  <target_pref_name>  (330) 
Androgen Receptor

>  <target_chembl_id>  (330) 
CHEMBL1871

>  <target_organism>  (330) 
Homo sapiens

>  <pchembl_median>  (330) 
7.43

$$$$
CHEMBL1947183
     RDKit          2D

 26 27  0  0  0  0  0  0  0  0999 V2000
   -5.0078   -5.8597    0.0000 C   0  0  0  0  0  0  0  0  0  0  0  0
   -3.6375   -5.2496    0.0000 C   0  0  0  0  0  0  0  0  0  0  0  0
   -3.4807   -3.7578    0.0000 C   0  0  0  0  0  0  0  0  0  0  0  0
   -4.6942   -2.8761    0.0000 O   0  0  0  0  0  0  0  0  0  0  0  0
   -2.4240   -6.1312    0.0000 C   0  0  0  0  0  0  0  0  0  0  0  0
   -1.0537   -5.5211    0.0000 N   0  0  0  0  0  0  0  0  0  0  0  0
    0.2454   -6.2711    0.0000 C   0  0  0  0  0  0  0  0  0  0  0  0
    1.3601   -5.2674    0.0000 C   0  0  0  0  0  0  0  0  0  0  0  0
    2.6591   -4.5174    0.0000 C   0  0  0  0  0  0  0  0  0  0  0  0
    2.2418   -6.4810    0.0000 C   0  0  0  0  0  0  0  0  0  0  0  0
    0.7500   -3.8971    0.0000 C   0  0  0  0  0  0  0  0  0  0  0  0
    1.5000   -2.5981    0.0000 O   0  0  0  0  0  0  0  0  0  0  0  0
    0.7500   -1.2990    0.0000 C   0  0  0  0  0  0  0  0  0  0  0  0
    1.5000    0.0000    0.0000 C   0  0  0  0  0  0  0  0  0  0  0  0
    0.7500    1.2990    0.0000 C   0  0  0  0  0  0  0  0  0  0  0  0
   -0.7500    1.2990    0.0000 C   0  0  0  0  0  0  0  0  0  0  0  0
   -1.5000    2.5981    0.0000 C   0  0  0  0  0  0  0  0  0  0  0  0
   -2.2500    3.8971    0.0000 N   0  0  0  0  0  0  0  0  0  0  0  0
   -1.5000    0.0000    0.0000 C   0  0  0  0  0  0  0  0  0  0  0  0
   -3.0000    0.0000    0.0000 C   0  0  0  0  0  0  0  0  0  0  0  0
   -4.5000    0.0000    0.0000 F   0  0  0  0  0  0  0  0  0  0  0  0
   -3.0000   -1.5000    0.0000 F   0  0  0  0  0  0  0  0  0  0  0  0
   -3.0000    1.5000    0.0000 F   0  0  0  0  0  0  0  0  0  0  0  0
   -0.7500   -1.2990    0.0000 C   0  0  0  0  0  0  0  0  0  0  0  0
   -0.7418   -4.0539    0.0000 C   0  0  0  0  0  0  0  0  0  0  0  0
   -1.7455   -2.9392    0.0000 O   0  0  0  0  0  0  0  0  0  0  0  0
  1  2  1  0
  2  3  1  0
  3  4  1  0
  2  5  1  0
  5  6  1  0
  6  7  1  0
  7  8  1  0
  8  9  1  0
  8 10  1  0
  8 11  1  0
 11 12  1  6
 12 13  1  0
 13 14  2  0
 14 15  1  0
 15 16  2  0
 16 17  1  0
 17 18  3  0
 16 19  1  0
 19 20  1  0
 20 21  1  0
 20 22  1  0
 20 23  1  0
 19 24  2  0
 11 25  1  0
 25 26  2  0
 25  6  1  0
 24 13  1  0
M  END
>  <assay_chembl_id>  (331) 
CHEMBL1947977

>  <assay_description>  (331) 
Antagonist activity at androgen receptor expressed in human LNAR cells assessed as inhibition of R1881-induced luciferase activity by spectrophotometry

>  <parent_molecule_chembl_id>  (331) 
CHEMBL1947183

>  <canonical_smiles>  (331) 
CC(CO)CN1CC(C)(C)[C@@H](Oc2ccc(C#N)c(C(F)(F)F)c2)C1=O

>  <standard_type>  (331) 
IC50

>  <standard_relation>  (331) 
=

>  <standard_value>  (331) 
371.0

>  <standard_units>  (331) 
nM

>  <target_pref_name>  (331) 
Androgen Receptor

>  <target_chembl_id>  (331) 
CHEMBL1871

>  <target_organism>  (331) 
Homo sapiens

>  <pchembl_median>  (331) 
8.39

$$$$
CHEMBL1947185
     RDKit          2D

 22 23  0  0  0  0  0  0  0  0999 V2000
   -2.2336   -3.8971    0.0000 C   0  0  0  0  0  0  0  0  0  0  0  0
   -0.7418   -4.0539    0.0000 C   0  0  0  0  0  0  0  0  0  0  0  0
   -0.7418   -2.5539    0.0000 C   0  0  0  0  0  0  0  0  0  0  0  0
   -1.0537   -5.5211    0.0000 C   0  0  0  0  0  0  0  0  0  0  0  0
    0.2454   -6.2711    0.0000 N   0  0  0  0  0  0  0  0  0  0  0  0
    0.4022   -7.7629    0.0000 C   0  0  0  0  0  0  0  0  0  0  0  0
   -0.8113   -8.6446    0.0000 C   0  0  0  0  0  0  0  0  0  0  0  0
   -0.6546  -10.1364    0.0000 C   0  0  0  0  0  0  0  0  0  0  0  0
   -0.4978  -11.6282    0.0000 N   0  0  0  0  0  0  0  0  0  0  0  0
    1.3601   -5.2674    0.0000 C   0  0  0  0  0  0  0  0  0  0  0  0
    2.8273   -5.5793    0.0000 O   0  0  0  0  0  0  0  0  0  0  0  0
    0.7500   -3.8971    0.0000 C   0  0  0  0  0  0  0  0  0  0  0  0
    1.5000   -2.5981    0.0000 O   0  0  0  0  0  0  0  0  0  0  0  0
    0.7500   -1.2990    0.0000 C   0  0  0  0  0  0  0  0  0  0  0  0
    1.5000    0.0000    0.0000 C   0  0  0  0  0  0  0  0  0  0  0  0
    0.7500    1.2990    0.0000 C   0  0  0  0  0  0  0  0  0  0  0  0
   -0.7500    1.2990    0.0000 C   0  0  0  0  0  0  0  0  0  0  0  0
   -1.5000    2.5981    0.0000 C   0  0  0  0  0  0  0  0  0  0  0  0
   -2.2500    3.8971    0.0000 N   0  0  0  0  0  0  0  0  0  0  0  0
   -1.5000    0.0000    0.0000 C   0  0  0  0  0  0  0  0  0  0  0  0
   -3.0000    0.0000    0.0000 Cl  0  0  0  0  0  0  0  0  0  0  0  0
   -0.7500   -1.2990    0.0000 C   0  0  0  0  0  0  0  0  0  0  0  0
  1  2  1  0
  2  3  1  0
  2  4  1  0
  4  5  1  0
  5  6  1  0
  6  7  1  0
  7  8  1  0
  8  9  3  0
  5 10  1  0
 10 11  2  0
 10 12  1  0
 12 13  1  1
 13 14  1  0
 14 15  2  0
 15 16  1  0
 16 17  2  0
 17 18  1  0
 18 19  3  0
 17 20  1  0
 20 21  1  0
 20 22  2  0
 12  2  1  0
 22 14  1  0
M  END
>  <assay_chembl_id>  (332) 
CHEMBL1947977

>  <assay_description>  (332) 
Antagonist activity at androgen receptor expressed in human LNAR cells assessed as inhibition of R1881-induced luciferase activity by spectrophotometry

>  <parent_molecule_chembl_id>  (332) 
CHEMBL1947185

>  <canonical_smiles>  (332) 
CC1(C)CN(CCC#N)C(=O)[C@@H]1Oc1ccc(C#N)c(Cl)c1

>  <standard_type>  (332) 
IC50

>  <standard_relation>  (332) 
=

>  <standard_value>  (332) 
68.0

>  <standard_units>  (332) 
nM

>  <target_pref_name>  (332) 
Androgen Receptor

>  <target_chembl_id>  (332) 
CHEMBL1871

>  <target_organism>  (332) 
Homo sapiens

>  <pchembl_median>  (332) 
8.85

$$$$
CHEMBL2159550
     RDKit          2D

 22 24  0  0  0  0  0  0  0  0999 V2000
   -4.4447   -7.3519    0.0000 F   0  0  0  0  0  0  0  0  0  0  0  0
   -3.3041   -6.3777    0.0000 C   0  0  0  0  0  0  0  0  0  0  0  0
   -3.5775   -4.9029    0.0000 C   0  0  0  0  0  0  0  0  0  0  0  0
   -2.4369   -3.9287    0.0000 C   0  0  0  0  0  0  0  0  0  0  0  0
   -1.0229   -4.4294    0.0000 C   0  0  0  0  0  0  0  0  0  0  0  0
    0.1177   -3.4552    0.0000 C   0  0  0  0  0  0  0  0  0  0  0  0
    1.5762   -3.8054    0.0000 N   0  0  0  0  0  0  0  0  0  0  0  0
    2.3600   -2.5264    0.0000 O   0  0  0  0  0  0  0  0  0  0  0  0
    1.3858   -1.3858    0.0000 C   0  0  0  0  0  0  0  0  0  0  0  0
    1.9598    0.0000    0.0000 C   0  0  0  0  0  0  0  0  0  0  0  0
    1.3858    1.3858    0.0000 C   0  0  0  0  0  0  0  0  0  0  0  0
    0.0000    1.9598    0.0000 C   0  0  0  0  0  0  0  0  0  0  0  0
   -1.3858    1.3858    0.0000 C   0  0  0  0  0  0  0  0  0  0  0  0
   -1.9598    0.0000    0.0000 C   0  0  0  0  0  0  0  0  0  0  0  0
   -1.3858   -1.3858    0.0000 C   0  0  0  0  0  0  0  0  0  0  0  0
   -0.0000   -1.9598    0.0000 C   0  0  0  0  0  0  0  0  0  0  0  0
   -0.7496   -5.9043    0.0000 C   0  0  0  0  0  0  0  0  0  0  0  0
    0.6644   -6.4050    0.0000 C   0  0  0  0  0  0  0  0  0  0  0  0
    2.0784   -6.9057    0.0000 F   0  0  0  0  0  0  0  0  0  0  0  0
    0.1637   -7.8189    0.0000 F   0  0  0  0  0  0  0  0  0  0  0  0
    1.1651   -4.9910    0.0000 F   0  0  0  0  0  0  0  0  0  0  0  0
   -1.8902   -6.8784    0.0000 C   0  0  0  0  0  0  0  0  0  0  0  0
  1  2  1  0
  2  3  2  0
  3  4  1  0
  4  5  2  0
  5  6  1  0
  6  7  2  0
  7  8  1  0
  8  9  1  0
  9 10  1  0
 10 11  1  0
 11 12  1  0
 12 13  1  0
 13 14  1  0
 14 15  1  0
 15 16  1  0
  5 17  1  0
 17 18  1  0
 18 19  1  0
 18 20  1  0
 18 21  1  0
 17 22  2  0
 22  2  1  0
 16  6  1  0
 16  9  1  0
M  END
>  <assay_chembl_id>  (333) 
CHEMBL2162624

>  <assay_description>  (333) 
Displacement of [3H]R1881 from wild type human androgen receptor expressed in COS-1 cells co-transfected with pSG5 after 15 mins by scintillation assay

>  <parent_molecule_chembl_id>  (333) 
CHEMBL2159550

>  <canonical_smiles>  (333) 
Fc1ccc(C2=NOC3CCCCCCC23)c(C(F)(F)F)c1

>  <standard_type>  (333) 
IC50

>  <standard_relation>  (333) 
=

>  <standard_value>  (333) 
13182.57

>  <standard_units>  (333) 
nM

>  <target_pref_name>  (333) 
Androgen Receptor

>  <target_chembl_id>  (333) 
CHEMBL1871

>  <target_organism>  (333) 
Homo sapiens

>  <pchembl_median>  (333) 
5.51

$$$$
CHEMBL2159549
     RDKit          2D

 22 24  0  0  0  0  0  0  0  0999 V2000
   -4.4447   -7.3519    0.0000 F   0  0  0  0  0  0  0  0  0  0  0  0
   -3.3041   -6.3777    0.0000 C   0  0  0  0  0  0  0  0  0  0  0  0
   -3.5775   -4.9029    0.0000 C   0  0  0  0  0  0  0  0  0  0  0  0
   -2.4369   -3.9287    0.0000 C   0  0  0  0  0  0  0  0  0  0  0  0
   -1.0229   -4.4294    0.0000 C   0  0  0  0  0  0  0  0  0  0  0  0
    0.1177   -3.4552    0.0000 C   0  0  0  0  0  0  0  0  0  0  0  0
    1.5762   -3.8054    0.0000 N   0  0  0  0  0  0  0  0  0  0  0  0
    2.3600   -2.5264    0.0000 O   0  0  0  0  0  0  0  0  0  0  0  0
    1.3858   -1.3858    0.0000 C   0  0  0  0  0  0  0  0  0  0  0  0
    1.9598    0.0000    0.0000 C   0  0  0  0  0  0  0  0  0  0  0  0
    1.3858    1.3858    0.0000 C   0  0  0  0  0  0  0  0  0  0  0  0
    0.0000    1.9598    0.0000 C   0  0  0  0  0  0  0  0  0  0  0  0
   -1.3858    1.3858    0.0000 C   0  0  0  0  0  0  0  0  0  0  0  0
   -1.9598    0.0000    0.0000 C   0  0  0  0  0  0  0  0  0  0  0  0
   -1.3858   -1.3858    0.0000 C   0  0  0  0  0  0  0  0  0  0  0  0
   -0.0000   -1.9598    0.0000 C   0  0  0  0  0  0  0  0  0  0  0  0
   -0.7496   -5.9043    0.0000 C   0  0  0  0  0  0  0  0  0  0  0  0
   -1.8902   -6.8784    0.0000 C   0  0  0  0  0  0  0  0  0  0  0  0
   -1.6168   -8.3533    0.0000 C   0  0  0  0  0  0  0  0  0  0  0  0
   -1.3435   -9.8282    0.0000 F   0  0  0  0  0  0  0  0  0  0  0  0
   -0.1419   -8.0800    0.0000 F   0  0  0  0  0  0  0  0  0  0  0  0
   -3.0917   -8.6267    0.0000 F   0  0  0  0  0  0  0  0  0  0  0  0
  1  2  1  0
  2  3  2  0
  3  4  1  0
  4  5  2  0
  5  6  1  0
  6  7  2  0
  7  8  1  0
  8  9  1  0
  9 10  1  0
 10 11  1  0
 11 12  1  0
 12 13  1  0
 13 14  1  0
 14 15  1  0
 15 16  1  0
  5 17  1  0
 17 18  2  0
 18 19  1  0
 19 20  1  0
 19 21  1  0
 19 22  1  0
 18  2  1  0
 16  6  1  0
 16  9  1  0
M  END
>  <assay_chembl_id>  (334) 
CHEMBL2162624

>  <assay_description>  (334) 
Displacement of [3H]R1881 from wild type human androgen receptor expressed in COS-1 cells co-transfected with pSG5 after 15 mins by scintillation assay

>  <parent_molecule_chembl_id>  (334) 
CHEMBL2159549

>  <canonical_smiles>  (334) 
Fc1ccc(C2=NOC3CCCCCCC23)cc1C(F)(F)F

>  <standard_type>  (334) 
IC50

>  <standard_relation>  (334) 
=

>  <standard_value>  (334) 
2818.38

>  <standard_units>  (334) 
nM

>  <target_pref_name>  (334) 
Androgen Receptor

>  <target_chembl_id>  (334) 
CHEMBL1871

>  <target_organism>  (334) 
Homo sapiens

>  <pchembl_median>  (334) 
5.51

$$$$
CHEMBL2159548
     RDKit          2D

 24 26  0  0  0  0  0  0  0  0999 V2000
   -4.1714   -8.8268    0.0000 O   0  0  0  0  0  0  0  0  0  0  0  0
   -4.4447   -7.3519    0.0000 N   0  0  0  0  0  4  0  0  0  0  0  0
   -5.8587   -6.8512    0.0000 O   0  0  0  0  0  1  0  0  0  0  0  0
   -3.3041   -6.3777    0.0000 C   0  0  0  0  0  0  0  0  0  0  0  0
   -3.5775   -4.9029    0.0000 C   0  0  0  0  0  0  0  0  0  0  0  0
   -2.4369   -3.9287    0.0000 C   0  0  0  0  0  0  0  0  0  0  0  0
   -1.0229   -4.4294    0.0000 C   0  0  0  0  0  0  0  0  0  0  0  0
    0.1177   -3.4552    0.0000 C   0  0  0  0  0  0  0  0  0  0  0  0
    1.5762   -3.8054    0.0000 N   0  0  0  0  0  0  0  0  0  0  0  0
    2.3600   -2.5264    0.0000 O   0  0  0  0  0  0  0  0  0  0  0  0
    1.3858   -1.3858    0.0000 C   0  0  0  0  0  0  0  0  0  0  0  0
    1.9598    0.0000    0.0000 C   0  0  0  0  0  0  0  0  0  0  0  0
    1.3858    1.3858    0.0000 C   0  0  0  0  0  0  0  0  0  0  0  0
    0.0000    1.9598    0.0000 C   0  0  0  0  0  0  0  0  0  0  0  0
   -1.3858    1.3858    0.0000 C   0  0  0  0  0  0  0  0  0  0  0  0
   -1.9598    0.0000    0.0000 C   0  0  0  0  0  0  0  0  0  0  0  0
   -1.3858   -1.3858    0.0000 C   0  0  0  0  0  0  0  0  0  0  0  0
   -0.0000   -1.9598    0.0000 C   0  0  0  0  0  0  0  0  0  0  0  0
   -0.7496   -5.9043    0.0000 C   0  0  0  0  0  0  0  0  0  0  0  0
    0.6644   -6.4050    0.0000 C   0  0  0  0  0  0  0  0  0  0  0  0
    2.0784   -6.9057    0.0000 F   0  0  0  0  0  0  0  0  0  0  0  0
    0.1637   -7.8189    0.0000 F   0  0  0  0  0  0  0  0  0  0  0  0
    1.1651   -4.9910    0.0000 F   0  0  0  0  0  0  0  0  0  0  0  0
   -1.8902   -6.8784    0.0000 C   0  0  0  0  0  0  0  0  0  0  0  0
  1  2  2  0
  2  3  1  0
  2  4  1  0
  4  5  2  0
  5  6  1  0
  6  7  2  0
  7  8  1  0
  8  9  2  0
  9 10  1  0
 10 11  1  0
 11 12  1  0
 12 13  1  0
 13 14  1  0
 14 15  1  0
 15 16  1  0
 16 17  1  0
 17 18  1  0
  7 19  1  0
 19 20  1  0
 20 21  1  0
 20 22  1  0
 20 23  1  0
 19 24  2  0
 24  4  1  0
 18  8  1  0
 18 11  1  0
M  CHG  2   2   1   3  -1
M  END
>  <assay_chembl_id>  (335) 
CHEMBL2162624

>  <assay_description>  (335) 
Displacement of [3H]R1881 from wild type human androgen receptor expressed in COS-1 cells co-transfected with pSG5 after 15 mins by scintillation assay

>  <parent_molecule_chembl_id>  (335) 
CHEMBL2159548

>  <canonical_smiles>  (335) 
O=[N+]([O-])c1ccc(C2=NOC3CCCCCCC23)c(C(F)(F)F)c1

>  <standard_type>  (335) 
IC50

>  <standard_relation>  (335) 
=

>  <standard_value>  (335) 
776.25

>  <standard_units>  (335) 
nM

>  <target_pref_name>  (335) 
Androgen Receptor

>  <target_chembl_id>  (335) 
CHEMBL1871

>  <target_organism>  (335) 
Homo sapiens

>  <pchembl_median>  (335) 
5.52

$$$$
CHEMBL2159547
     RDKit          2D

 24 26  0  0  0  0  0  0  0  0999 V2000
   -4.1714   -8.8268    0.0000 O   0  0  0  0  0  0  0  0  0  0  0  0
   -4.4447   -7.3519    0.0000 N   0  0  0  0  0  4  0  0  0  0  0  0
   -5.8587   -6.8512    0.0000 O   0  0  0  0  0  1  0  0  0  0  0  0
   -3.3041   -6.3777    0.0000 C   0  0  0  0  0  0  0  0  0  0  0  0
   -3.5775   -4.9029    0.0000 C   0  0  0  0  0  0  0  0  0  0  0  0
   -2.4369   -3.9287    0.0000 C   0  0  0  0  0  0  0  0  0  0  0  0
   -1.0229   -4.4294    0.0000 C   0  0  0  0  0  0  0  0  0  0  0  0
    0.1177   -3.4552    0.0000 C   0  0  0  0  0  0  0  0  0  0  0  0
    1.5762   -3.8054    0.0000 N   0  0  0  0  0  0  0  0  0  0  0  0
    2.3600   -2.5264    0.0000 O   0  0  0  0  0  0  0  0  0  0  0  0
    1.3858   -1.3858    0.0000 C   0  0  0  0  0  0  0  0  0  0  0  0
    1.9598    0.0000    0.0000 C   0  0  0  0  0  0  0  0  0  0  0  0
    1.3858    1.3858    0.0000 C   0  0  0  0  0  0  0  0  0  0  0  0
    0.0000    1.9598    0.0000 C   0  0  0  0  0  0  0  0  0  0  0  0
   -1.3858    1.3858    0.0000 C   0  0  0  0  0  0  0  0  0  0  0  0
   -1.9598    0.0000    0.0000 C   0  0  0  0  0  0  0  0  0  0  0  0
   -1.3858   -1.3858    0.0000 C   0  0  0  0  0  0  0  0  0  0  0  0
   -0.0000   -1.9598    0.0000 C   0  0  0  0  0  0  0  0  0  0  0  0
   -0.7496   -5.9043    0.0000 C   0  0  0  0  0  0  0  0  0  0  0  0
   -1.8902   -6.8784    0.0000 C   0  0  0  0  0  0  0  0  0  0  0  0
   -1.6168   -8.3533    0.0000 C   0  0  0  0  0  0  0  0  0  0  0  0
   -1.3435   -9.8282    0.0000 F   0  0  0  0  0  0  0  0  0  0  0  0
   -0.1419   -8.0800    0.0000 F   0  0  0  0  0  0  0  0  0  0  0  0
   -3.0917   -8.6267    0.0000 F   0  0  0  0  0  0  0  0  0  0  0  0
  1  2  2  0
  2  3  1  0
  2  4  1  0
  4  5  2  0
  5  6  1  0
  6  7  2  0
  7  8  1  0
  8  9  2  0
  9 10  1  0
 10 11  1  0
 11 12  1  0
 12 13  1  0
 13 14  1  0
 14 15  1  0
 15 16  1  0
 16 17  1  0
 17 18  1  0
  7 19  1  0
 19 20  2  0
 20 21  1  0
 21 22  1  0
 21 23  1  0
 21 24  1  0
 20  4  1  0
 18  8  1  0
 18 11  1  0
M  CHG  2   2   1   3  -1
M  END
>  <assay_chembl_id>  (336) 
CHEMBL2162624

>  <assay_description>  (336) 
Displacement of [3H]R1881 from wild type human androgen receptor expressed in COS-1 cells co-transfected with pSG5 after 15 mins by scintillation assay

>  <parent_molecule_chembl_id>  (336) 
CHEMBL2159547

>  <canonical_smiles>  (336) 
O=[N+]([O-])c1ccc(C2=NOC3CCCCCCC23)cc1C(F)(F)F

>  <standard_type>  (336) 
IC50

>  <standard_relation>  (336) 
=

>  <standard_value>  (336) 
707.95

>  <standard_units>  (336) 
nM

>  <target_pref_name>  (336) 
Androgen Receptor

>  <target_chembl_id>  (336) 
CHEMBL1871

>  <target_organism>  (336) 
Homo sapiens

>  <pchembl_median>  (336) 
4.89

$$$$
CHEMBL2159546
     RDKit          2D

 23 25  0  0  0  0  0  0  0  0999 V2000
   -5.5854   -8.3261    0.0000 N   0  0  0  0  0  0  0  0  0  0  0  0
   -4.4447   -7.3519    0.0000 C   0  0  0  0  0  0  0  0  0  0  0  0
   -3.3041   -6.3777    0.0000 C   0  0  0  0  0  0  0  0  0  0  0  0
   -3.5775   -4.9029    0.0000 C   0  0  0  0  0  0  0  0  0  0  0  0
   -2.4369   -3.9287    0.0000 C   0  0  0  0  0  0  0  0  0  0  0  0
   -1.0229   -4.4294    0.0000 C   0  0  0  0  0  0  0  0  0  0  0  0
    0.1177   -3.4552    0.0000 C   0  0  0  0  0  0  0  0  0  0  0  0
    1.5762   -3.8054    0.0000 N   0  0  0  0  0  0  0  0  0  0  0  0
    2.3600   -2.5264    0.0000 O   0  0  0  0  0  0  0  0  0  0  0  0
    1.3858   -1.3858    0.0000 C   0  0  0  0  0  0  0  0  0  0  0  0
    1.9598    0.0000    0.0000 C   0  0  0  0  0  0  0  0  0  0  0  0
    1.3858    1.3858    0.0000 C   0  0  0  0  0  0  0  0  0  0  0  0
    0.0000    1.9598    0.0000 C   0  0  0  0  0  0  0  0  0  0  0  0
   -1.3858    1.3858    0.0000 C   0  0  0  0  0  0  0  0  0  0  0  0
   -1.9598    0.0000    0.0000 C   0  0  0  0  0  0  0  0  0  0  0  0
   -1.3858   -1.3858    0.0000 C   0  0  0  0  0  0  0  0  0  0  0  0
   -0.0000   -1.9598    0.0000 C   0  0  0  0  0  0  0  0  0  0  0  0
   -0.7496   -5.9043    0.0000 C   0  0  0  0  0  0  0  0  0  0  0  0
    0.6644   -6.4050    0.0000 C   0  0  0  0  0  0  0  0  0  0  0  0
    2.0784   -6.9057    0.0000 F   0  0  0  0  0  0  0  0  0  0  0  0
    0.1637   -7.8189    0.0000 F   0  0  0  0  0  0  0  0  0  0  0  0
    1.1651   -4.9910    0.0000 F   0  0  0  0  0  0  0  0  0  0  0  0
   -1.8902   -6.8784    0.0000 C   0  0  0  0  0  0  0  0  0  0  0  0
  1  2  3  0
  2  3  1  0
  3  4  2  0
  4  5  1  0
  5  6  2  0
  6  7  1  0
  7  8  2  0
  8  9  1  0
  9 10  1  0
 10 11  1  0
 11 12  1  0
 12 13  1  0
 13 14  1  0
 14 15  1  0
 15 16  1  0
 16 17  1  0
  6 18  1  0
 18 19  1  0
 19 20  1  0
 19 21  1  0
 19 22  1  0
 18 23  2  0
 23  3  1  0
 17  7  1  0
 17 10  1  0
M  END
>  <assay_chembl_id>  (337) 
CHEMBL2162624

>  <assay_description>  (337) 
Displacement of [3H]R1881 from wild type human androgen receptor expressed in COS-1 cells co-transfected with pSG5 after 15 mins by scintillation assay

>  <parent_molecule_chembl_id>  (337) 
CHEMBL2159546

>  <canonical_smiles>  (337) 
N#Cc1ccc(C2=NOC3CCCCCCC23)c(C(F)(F)F)c1

>  <standard_type>  (337) 
IC50

>  <standard_relation>  (337) 
=

>  <standard_value>  (337) 
1995.26

>  <standard_units>  (337) 
nM

>  <target_pref_name>  (337) 
Androgen Receptor

>  <target_chembl_id>  (337) 
CHEMBL1871

>  <target_organism>  (337) 
Homo sapiens

>  <pchembl_median>  (337) 
5.47

$$$$
CHEMBL2159545
     RDKit          2D

 23 25  0  0  0  0  0  0  0  0999 V2000
   -5.5854   -8.3261    0.0000 N   0  0  0  0  0  0  0  0  0  0  0  0
   -4.4447   -7.3519    0.0000 C   0  0  0  0  0  0  0  0  0  0  0  0
   -3.3041   -6.3777    0.0000 C   0  0  0  0  0  0  0  0  0  0  0  0
   -3.5775   -4.9029    0.0000 C   0  0  0  0  0  0  0  0  0  0  0  0
   -2.4369   -3.9287    0.0000 C   0  0  0  0  0  0  0  0  0  0  0  0
   -1.0229   -4.4294    0.0000 C   0  0  0  0  0  0  0  0  0  0  0  0
    0.1177   -3.4552    0.0000 C   0  0  0  0  0  0  0  0  0  0  0  0
    1.5762   -3.8054    0.0000 N   0  0  0  0  0  0  0  0  0  0  0  0
    2.3600   -2.5264    0.0000 O   0  0  0  0  0  0  0  0  0  0  0  0
    1.3858   -1.3858    0.0000 C   0  0  0  0  0  0  0  0  0  0  0  0
    1.9598    0.0000    0.0000 C   0  0  0  0  0  0  0  0  0  0  0  0
    1.3858    1.3858    0.0000 C   0  0  0  0  0  0  0  0  0  0  0  0
    0.0000    1.9598    0.0000 C   0  0  0  0  0  0  0  0  0  0  0  0
   -1.3858    1.3858    0.0000 C   0  0  0  0  0  0  0  0  0  0  0  0
   -1.9598    0.0000    0.0000 C   0  0  0  0  0  0  0  0  0  0  0  0
   -1.3858   -1.3858    0.0000 C   0  0  0  0  0  0  0  0  0  0  0  0
   -0.0000   -1.9598    0.0000 C   0  0  0  0  0  0  0  0  0  0  0  0
   -0.7496   -5.9043    0.0000 C   0  0  0  0  0  0  0  0  0  0  0  0
   -1.8902   -6.8784    0.0000 C   0  0  0  0  0  0  0  0  0  0  0  0
   -1.6168   -8.3533    0.0000 C   0  0  0  0  0  0  0  0  0  0  0  0
   -1.3435   -9.8282    0.0000 F   0  0  0  0  0  0  0  0  0  0  0  0
   -0.1419   -8.0800    0.0000 F   0  0  0  0  0  0  0  0  0  0  0  0
   -3.0917   -8.6267    0.0000 F   0  0  0  0  0  0  0  0  0  0  0  0
  1  2  3  0
  2  3  1  0
  3  4  2  0
  4  5  1  0
  5  6  2  0
  6  7  1  0
  7  8  2  0
  8  9  1  0
  9 10  1  0
 10 11  1  0
 11 12  1  0
 12 13  1  0
 13 14  1  0
 14 15  1  0
 15 16  1  0
 16 17  1  0
  6 18  1  0
 18 19  2  0
 19 20  1  0
 20 21  1  0
 20 22  1  0
 20 23  1  0
 19  3  1  0
 17  7  1  0
 17 10  1  0
M  END
>  <assay_chembl_id>  (338) 
CHEMBL2162624

>  <assay_description>  (338) 
Displacement of [3H]R1881 from wild type human androgen receptor expressed in COS-1 cells co-transfected with pSG5 after 15 mins by scintillation assay

>  <parent_molecule_chembl_id>  (338) 
CHEMBL2159545

>  <canonical_smiles>  (338) 
N#Cc1ccc(C2=NOC3CCCCCCC23)cc1C(F)(F)F

>  <standard_type>  (338) 
IC50

>  <standard_relation>  (338) 
=

>  <standard_value>  (338) 
295.12

>  <standard_units>  (338) 
nM

>  <target_pref_name>  (338) 
Androgen Receptor

>  <target_chembl_id>  (338) 
CHEMBL1871

>  <target_organism>  (338) 
Homo sapiens

>  <pchembl_median>  (338) 
5.11

$$$$
CHEMBL2159544
     RDKit          2D

 21 23  0  0  0  0  0  0  0  0999 V2000
   -5.6698    6.2566    0.0000 F   0  0  0  0  0  0  0  0  0  0  0  0
   -4.3821    5.4872    0.0000 C   0  0  0  0  0  0  0  0  0  0  0  0
   -3.0720    6.2177    0.0000 C   0  0  0  0  0  0  0  0  0  0  0  0
   -1.7843    5.4484    0.0000 C   0  0  0  0  0  0  0  0  0  0  0  0
   -1.8068    3.9485    0.0000 C   0  0  0  0  0  0  0  0  0  0  0  0
   -0.5191    3.1792    0.0000 C   0  0  0  0  0  0  0  0  0  0  0  0
    0.8602    3.7687    0.0000 N   0  0  0  0  0  0  0  0  0  0  0  0
    1.8471    2.6391    0.0000 O   0  0  0  0  0  0  0  0  0  0  0  0
    1.0777    1.3515    0.0000 C   0  0  0  0  0  0  0  0  0  0  0  0
    1.7286    0.0000    0.0000 C   0  0  0  0  0  0  0  0  0  0  0  0
    1.0777   -1.3515    0.0000 C   0  0  0  0  0  0  0  0  0  0  0  0
   -0.3846   -1.6852    0.0000 C   0  0  0  0  0  0  0  0  0  0  0  0
   -1.5574   -0.7500    0.0000 C   0  0  0  0  0  0  0  0  0  0  0  0
   -1.5574    0.7500    0.0000 C   0  0  0  0  0  0  0  0  0  0  0  0
   -0.3846    1.6852    0.0000 C   0  0  0  0  0  0  0  0  0  0  0  0
   -3.1169    3.2181    0.0000 C   0  0  0  0  0  0  0  0  0  0  0  0
   -3.1393    1.7182    0.0000 C   0  0  0  0  0  0  0  0  0  0  0  0
   -3.1618    0.2184    0.0000 F   0  0  0  0  0  0  0  0  0  0  0  0
   -4.6392    1.7407    0.0000 F   0  0  0  0  0  0  0  0  0  0  0  0
   -1.6395    1.6958    0.0000 F   0  0  0  0  0  0  0  0  0  0  0  0
   -4.4046    3.9874    0.0000 C   0  0  0  0  0  0  0  0  0  0  0  0
  1  2  1  0
  2  3  2  0
  3  4  1  0
  4  5  2  0
  5  6  1  0
  6  7  2  0
  7  8  1  0
  8  9  1  0
  9 10  1  0
 10 11  1  0
 11 12  1  0
 12 13  1  0
 13 14  1  0
 14 15  1  0
  5 16  1  0
 16 17  1  0
 17 18  1  0
 17 19  1  0
 17 20  1  0
 16 21  2  0
 21  2  1  0
 15  6  1  0
 15  9  1  0
M  END
>  <assay_chembl_id>  (339) 
CHEMBL2162624

>  <assay_description>  (339) 
Displacement of [3H]R1881 from wild type human androgen receptor expressed in COS-1 cells co-transfected with pSG5 after 15 mins by scintillation assay

>  <parent_molecule_chembl_id>  (339) 
CHEMBL2159544

>  <canonical_smiles>  (339) 
Fc1ccc(C2=NOC3CCCCCC23)c(C(F)(F)F)c1

>  <standard_type>  (339) 
IC50

>  <standard_relation>  (339) 
=

>  <standard_value>  (339) 
660.69

>  <standard_units>  (339) 
nM

>  <target_pref_name>  (339) 
Androgen Receptor

>  <target_chembl_id>  (339) 
CHEMBL1871

>  <target_organism>  (339) 
Homo sapiens

>  <pchembl_median>  (339) 
5.43

$$$$
CHEMBL2159543
     RDKit          2D

 21 23  0  0  0  0  0  0  0  0999 V2000
   -5.6698    6.2566    0.0000 F   0  0  0  0  0  0  0  0  0  0  0  0
   -4.3821    5.4872    0.0000 C   0  0  0  0  0  0  0  0  0  0  0  0
   -3.0720    6.2177    0.0000 C   0  0  0  0  0  0  0  0  0  0  0  0
   -1.7843    5.4484    0.0000 C   0  0  0  0  0  0  0  0  0  0  0  0
   -1.8068    3.9485    0.0000 C   0  0  0  0  0  0  0  0  0  0  0  0
   -0.5191    3.1792    0.0000 C   0  0  0  0  0  0  0  0  0  0  0  0
    0.8602    3.7687    0.0000 N   0  0  0  0  0  0  0  0  0  0  0  0
    1.8471    2.6391    0.0000 O   0  0  0  0  0  0  0  0  0  0  0  0
    1.0777    1.3515    0.0000 C   0  0  0  0  0  0  0  0  0  0  0  0
    1.7286    0.0000    0.0000 C   0  0  0  0  0  0  0  0  0  0  0  0
    1.0777   -1.3515    0.0000 C   0  0  0  0  0  0  0  0  0  0  0  0
   -0.3846   -1.6852    0.0000 C   0  0  0  0  0  0  0  0  0  0  0  0
   -1.5574   -0.7500    0.0000 C   0  0  0  0  0  0  0  0  0  0  0  0
   -1.5574    0.7500    0.0000 C   0  0  0  0  0  0  0  0  0  0  0  0
   -0.3846    1.6852    0.0000 C   0  0  0  0  0  0  0  0  0  0  0  0
   -3.1169    3.2181    0.0000 C   0  0  0  0  0  0  0  0  0  0  0  0
   -4.4046    3.9874    0.0000 C   0  0  0  0  0  0  0  0  0  0  0  0
   -5.7147    3.2569    0.0000 C   0  0  0  0  0  0  0  0  0  0  0  0
   -7.0248    2.5264    0.0000 F   0  0  0  0  0  0  0  0  0  0  0  0
   -4.9842    1.9468    0.0000 F   0  0  0  0  0  0  0  0  0  0  0  0
   -6.4452    4.5670    0.0000 F   0  0  0  0  0  0  0  0  0  0  0  0
  1  2  1  0
  2  3  2  0
  3  4  1  0
  4  5  2  0
  5  6  1  0
  6  7  2  0
  7  8  1  0
  8  9  1  0
  9 10  1  0
 10 11  1  0
 11 12  1  0
 12 13  1  0
 13 14  1  0
 14 15  1  0
  5 16  1  0
 16 17  2  0
 17 18  1  0
 18 19  1  0
 18 20  1  0
 18 21  1  0
 17  2  1  0
 15  6  1  0
 15  9  1  0
M  END
>  <assay_chembl_id>  (340) 
CHEMBL2162624

>  <assay_description>  (340) 
Displacement of [3H]R1881 from wild type human androgen receptor expressed in COS-1 cells co-transfected with pSG5 after 15 mins by scintillation assay

>  <parent_molecule_chembl_id>  (340) 
CHEMBL2159543

>  <canonical_smiles>  (340) 
Fc1ccc(C2=NOC3CCCCCC23)cc1C(F)(F)F

>  <standard_type>  (340) 
IC50

>  <standard_relation>  (340) 
=

>  <standard_value>  (340) 
10964.78

>  <standard_units>  (340) 
nM

>  <target_pref_name>  (340) 
Androgen Receptor

>  <target_chembl_id>  (340) 
CHEMBL1871

>  <target_organism>  (340) 
Homo sapiens

>  <pchembl_median>  (340) 
4.96

$$$$
CHEMBL2159542
     RDKit          2D

 23 25  0  0  0  0  0  0  0  0999 V2000
   -6.9799    5.5261    0.0000 O   0  0  0  0  0  0  0  0  0  0  0  0
   -5.6698    6.2566    0.0000 N   0  0  0  0  0  4  0  0  0  0  0  0
   -5.6474    7.7564    0.0000 O   0  0  0  0  0  1  0  0  0  0  0  0
   -4.3821    5.4872    0.0000 C   0  0  0  0  0  0  0  0  0  0  0  0
   -3.0720    6.2177    0.0000 C   0  0  0  0  0  0  0  0  0  0  0  0
   -1.7843    5.4484    0.0000 C   0  0  0  0  0  0  0  0  0  0  0  0
   -1.8068    3.9485    0.0000 C   0  0  0  0  0  0  0  0  0  0  0  0
   -0.5191    3.1792    0.0000 C   0  0  0  0  0  0  0  0  0  0  0  0
    0.8602    3.7687    0.0000 N   0  0  0  0  0  0  0  0  0  0  0  0
    1.8471    2.6391    0.0000 O   0  0  0  0  0  0  0  0  0  0  0  0
    1.0777    1.3515    0.0000 C   0  0  0  0  0  0  0  0  0  0  0  0
    1.7286    0.0000    0.0000 C   0  0  0  0  0  0  0  0  0  0  0  0
    1.0777   -1.3515    0.0000 C   0  0  0  0  0  0  0  0  0  0  0  0
   -0.3846   -1.6852    0.0000 C   0  0  0  0  0  0  0  0  0  0  0  0
   -1.5574   -0.7500    0.0000 C   0  0  0  0  0  0  0  0  0  0  0  0
   -1.5574    0.7500    0.0000 C   0  0  0  0  0  0  0  0  0  0  0  0
   -0.3846    1.6852    0.0000 C   0  0  0  0  0  0  0  0  0  0  0  0
   -3.1169    3.2181    0.0000 C   0  0  0  0  0  0  0  0  0  0  0  0
   -3.1393    1.7182    0.0000 C   0  0  0  0  0  0  0  0  0  0  0  0
   -3.1618    0.2184    0.0000 F   0  0  0  0  0  0  0  0  0  0  0  0
   -4.6392    1.7407    0.0000 F   0  0  0  0  0  0  0  0  0  0  0  0
   -1.6395    1.6958    0.0000 F   0  0  0  0  0  0  0  0  0  0  0  0
   -4.4046    3.9874    0.0000 C   0  0  0  0  0  0  0  0  0  0  0  0
  1  2  2  0
  2  3  1  0
  2  4  1  0
  4  5  2  0
  5  6  1  0
  6  7  2  0
  7  8  1  0
  8  9  2  0
  9 10  1  0
 10 11  1  0
 11 12  1  1
 12 13  1  0
 13 14  1  0
 14 15  1  0
 15 16  1  0
 17 16  1  1
  7 18  1  0
 18 19  1  0
 19 20  1  0
 19 21  1  0
 19 22  1  0
 18 23  2  0
 23  4  1  0
 17  8  1  0
 17 11  1  0
M  CHG  2   2   1   3  -1
M  END
>  <assay_chembl_id>  (341) 
CHEMBL2162624

>  <assay_description>  (341) 
Displacement of [3H]R1881 from wild type human androgen receptor expressed in COS-1 cells co-transfected with pSG5 after 15 mins by scintillation assay

>  <parent_molecule_chembl_id>  (341) 
CHEMBL2159542

>  <canonical_smiles>  (341) 
O=[N+]([O-])c1ccc(C2=NO[C@H]3CCCCC[C@@H]23)c(C(F)(F)F)c1

>  <standard_type>  (341) 
IC50

>  <standard_relation>  (341) 
=

>  <standard_value>  (341) 
389.05

>  <standard_units>  (341) 
nM

>  <target_pref_name>  (341) 
Androgen Receptor

>  <target_chembl_id>  (341) 
CHEMBL1871

>  <target_organism>  (341) 
Homo sapiens

>  <pchembl_median>  (341) 
7.3

$$$$
CHEMBL2159541
     RDKit          2D

 23 25  0  0  0  0  0  0  0  0999 V2000
   -6.9799    5.5261    0.0000 O   0  0  0  0  0  0  0  0  0  0  0  0
   -5.6698    6.2566    0.0000 N   0  0  0  0  0  4  0  0  0  0  0  0
   -5.6474    7.7564    0.0000 O   0  0  0  0  0  1  0  0  0  0  0  0
   -4.3821    5.4872    0.0000 C   0  0  0  0  0  0  0  0  0  0  0  0
   -3.0720    6.2177    0.0000 C   0  0  0  0  0  0  0  0  0  0  0  0
   -1.7843    5.4484    0.0000 C   0  0  0  0  0  0  0  0  0  0  0  0
   -1.8068    3.9485    0.0000 C   0  0  0  0  0  0  0  0  0  0  0  0
   -0.5191    3.1792    0.0000 C   0  0  0  0  0  0  0  0  0  0  0  0
    0.8602    3.7687    0.0000 N   0  0  0  0  0  0  0  0  0  0  0  0
    1.8471    2.6391    0.0000 O   0  0  0  0  0  0  0  0  0  0  0  0
    1.0777    1.3515    0.0000 C   0  0  0  0  0  0  0  0  0  0  0  0
    1.7286    0.0000    0.0000 C   0  0  0  0  0  0  0  0  0  0  0  0
    1.0777   -1.3515    0.0000 C   0  0  0  0  0  0  0  0  0  0  0  0
   -0.3846   -1.6852    0.0000 C   0  0  0  0  0  0  0  0  0  0  0  0
   -1.5574   -0.7500    0.0000 C   0  0  0  0  0  0  0  0  0  0  0  0
   -1.5574    0.7500    0.0000 C   0  0  0  0  0  0  0  0  0  0  0  0
   -0.3846    1.6852    0.0000 C   0  0  0  0  0  0  0  0  0  0  0  0
   -3.1169    3.2181    0.0000 C   0  0  0  0  0  0  0  0  0  0  0  0
   -3.1393    1.7182    0.0000 C   0  0  0  0  0  0  0  0  0  0  0  0
   -3.1618    0.2184    0.0000 F   0  0  0  0  0  0  0  0  0  0  0  0
   -4.6392    1.7407    0.0000 F   0  0  0  0  0  0  0  0  0  0  0  0
   -1.6395    1.6958    0.0000 F   0  0  0  0  0  0  0  0  0  0  0  0
   -4.4046    3.9874    0.0000 C   0  0  0  0  0  0  0  0  0  0  0  0
  1  2  2  0
  2  3  1  0
  2  4  1  0
  4  5  2  0
  5  6  1  0
  6  7  2  0
  7  8  1  0
  8  9  2  0
  9 10  1  0
 10 11  1  0
 11 12  1  6
 12 13  1  0
 13 14  1  0
 14 15  1  0
 15 16  1  0
 17 16  1  6
  7 18  1  0
 18 19  1  0
 19 20  1  0
 19 21  1  0
 19 22  1  0
 18 23  2  0
 23  4  1  0
 17  8  1  0
 17 11  1  0
M  CHG  2   2   1   3  -1
M  END
>  <assay_chembl_id>  (342) 
CHEMBL2162624

>  <assay_description>  (342) 
Displacement of [3H]R1881 from wild type human androgen receptor expressed in COS-1 cells co-transfected with pSG5 after 15 mins by scintillation assay

>  <parent_molecule_chembl_id>  (342) 
CHEMBL2159541

>  <canonical_smiles>  (342) 
O=[N+]([O-])c1ccc(C2=NO[C@@H]3CCCCC[C@H]23)c(C(F)(F)F)c1

>  <standard_type>  (342) 
IC50

>  <standard_relation>  (342) 
=

>  <standard_value>  (342) 
309.03

>  <standard_units>  (342) 
nM

>  <target_pref_name>  (342) 
Androgen Receptor

>  <target_chembl_id>  (342) 
CHEMBL1871

>  <target_organism>  (342) 
Homo sapiens

>  <pchembl_median>  (342) 
6.58

$$$$
CHEMBL2159540
     RDKit          2D

 23 25  0  0  0  0  0  0  0  0999 V2000
   -6.9799    5.5261    0.0000 O   0  0  0  0  0  0  0  0  0  0  0  0
   -5.6698    6.2566    0.0000 N   0  0  0  0  0  4  0  0  0  0  0  0
   -5.6474    7.7564    0.0000 O   0  0  0  0  0  1  0  0  0  0  0  0
   -4.3821    5.4872    0.0000 C   0  0  0  0  0  0  0  0  0  0  0  0
   -3.0720    6.2177    0.0000 C   0  0  0  0  0  0  0  0  0  0  0  0
   -1.7843    5.4484    0.0000 C   0  0  0  0  0  0  0  0  0  0  0  0
   -1.8068    3.9485    0.0000 C   0  0  0  0  0  0  0  0  0  0  0  0
   -0.5191    3.1792    0.0000 C   0  0  0  0  0  0  0  0  0  0  0  0
    0.8602    3.7687    0.0000 N   0  0  0  0  0  0  0  0  0  0  0  0
    1.8471    2.6391    0.0000 O   0  0  0  0  0  0  0  0  0  0  0  0
    1.0777    1.3515    0.0000 C   0  0  0  0  0  0  0  0  0  0  0  0
    1.7286    0.0000    0.0000 C   0  0  0  0  0  0  0  0  0  0  0  0
    1.0777   -1.3515    0.0000 C   0  0  0  0  0  0  0  0  0  0  0  0
   -0.3846   -1.6852    0.0000 C   0  0  0  0  0  0  0  0  0  0  0  0
   -1.5574   -0.7500    0.0000 C   0  0  0  0  0  0  0  0  0  0  0  0
   -1.5574    0.7500    0.0000 C   0  0  0  0  0  0  0  0  0  0  0  0
   -0.3846    1.6852    0.0000 C   0  0  0  0  0  0  0  0  0  0  0  0
   -3.1169    3.2181    0.0000 C   0  0  0  0  0  0  0  0  0  0  0  0
   -4.4046    3.9874    0.0000 C   0  0  0  0  0  0  0  0  0  0  0  0
   -5.7147    3.2569    0.0000 C   0  0  0  0  0  0  0  0  0  0  0  0
   -7.0248    2.5264    0.0000 F   0  0  0  0  0  0  0  0  0  0  0  0
   -4.9842    1.9468    0.0000 F   0  0  0  0  0  0  0  0  0  0  0  0
   -6.4452    4.5670    0.0000 F   0  0  0  0  0  0  0  0  0  0  0  0
  1  2  2  0
  2  3  1  0
  2  4  1  0
  4  5  2  0
  5  6  1  0
  6  7  2  0
  7  8  1  0
  8  9  2  0
  9 10  1  0
 10 11  1  0
 11 12  1  0
 12 13  1  0
 13 14  1  0
 14 15  1  0
 15 16  1  0
 16 17  1  0
  7 18  1  0
 18 19  2  0
 19 20  1  0
 20 21  1  0
 20 22  1  0
 20 23  1  0
 19  4  1  0
 17  8  1  0
 17 11  1  0
M  CHG  2   2   1   3  -1
M  END
>  <assay_chembl_id>  (343) 
CHEMBL2162624

>  <assay_description>  (343) 
Displacement of [3H]R1881 from wild type human androgen receptor expressed in COS-1 cells co-transfected with pSG5 after 15 mins by scintillation assay

>  <parent_molecule_chembl_id>  (343) 
CHEMBL2159540

>  <canonical_smiles>  (343) 
O=[N+]([O-])c1ccc(C2=NOC3CCCCCC23)cc1C(F)(F)F

>  <standard_type>  (343) 
IC50

>  <standard_relation>  (343) 
=

>  <standard_value>  (343) 
104.71

>  <standard_units>  (343) 
nM

>  <target_pref_name>  (343) 
Androgen Receptor

>  <target_chembl_id>  (343) 
CHEMBL1871

>  <target_organism>  (343) 
Homo sapiens

>  <pchembl_median>  (343) 
5.48

$$$$
CHEMBL2159539
     RDKit          2D

 22 24  0  0  0  0  0  0  0  0999 V2000
   -6.9575    7.0259    0.0000 N   0  0  0  0  0  0  0  0  0  0  0  0
   -5.6698    6.2566    0.0000 C   0  0  0  0  0  0  0  0  0  0  0  0
   -4.3821    5.4872    0.0000 C   0  0  0  0  0  0  0  0  0  0  0  0
   -3.0720    6.2177    0.0000 C   0  0  0  0  0  0  0  0  0  0  0  0
   -1.7843    5.4484    0.0000 C   0  0  0  0  0  0  0  0  0  0  0  0
   -1.8068    3.9485    0.0000 C   0  0  0  0  0  0  0  0  0  0  0  0
   -0.5191    3.1792    0.0000 C   0  0  0  0  0  0  0  0  0  0  0  0
    0.8602    3.7687    0.0000 N   0  0  0  0  0  0  0  0  0  0  0  0
    1.8471    2.6391    0.0000 O   0  0  0  0  0  0  0  0  0  0  0  0
    1.0777    1.3515    0.0000 C   0  0  0  0  0  0  0  0  0  0  0  0
    1.7286    0.0000    0.0000 C   0  0  0  0  0  0  0  0  0  0  0  0
    1.0777   -1.3515    0.0000 C   0  0  0  0  0  0  0  0  0  0  0  0
   -0.3846   -1.6852    0.0000 C   0  0  0  0  0  0  0  0  0  0  0  0
   -1.5574   -0.7500    0.0000 C   0  0  0  0  0  0  0  0  0  0  0  0
   -1.5574    0.7500    0.0000 C   0  0  0  0  0  0  0  0  0  0  0  0
   -0.3846    1.6852    0.0000 C   0  0  0  0  0  0  0  0  0  0  0  0
   -3.1169    3.2181    0.0000 C   0  0  0  0  0  0  0  0  0  0  0  0
   -3.1393    1.7182    0.0000 C   0  0  0  0  0  0  0  0  0  0  0  0
   -3.1618    0.2184    0.0000 F   0  0  0  0  0  0  0  0  0  0  0  0
   -4.6392    1.7407    0.0000 F   0  0  0  0  0  0  0  0  0  0  0  0
   -1.6395    1.6958    0.0000 F   0  0  0  0  0  0  0  0  0  0  0  0
   -4.4046    3.9874    0.0000 C   0  0  0  0  0  0  0  0  0  0  0  0
  1  2  3  0
  2  3  1  0
  3  4  2  0
  4  5  1  0
  5  6  2  0
  6  7  1  0
  7  8  2  0
  8  9  1  0
  9 10  1  0
 10 11  1  0
 11 12  1  0
 12 13  1  0
 13 14  1  0
 14 15  1  0
 15 16  1  0
  6 17  1  0
 17 18  1  0
 18 19  1  0
 18 20  1  0
 18 21  1  0
 17 22  2  0
 22  3  1  0
 16  7  1  0
 16 10  1  0
M  END
>  <assay_chembl_id>  (344) 
CHEMBL2162624

>  <assay_description>  (344) 
Displacement of [3H]R1881 from wild type human androgen receptor expressed in COS-1 cells co-transfected with pSG5 after 15 mins by scintillation assay

>  <parent_molecule_chembl_id>  (344) 
CHEMBL2159539

>  <canonical_smiles>  (344) 
N#Cc1ccc(C2=NOC3CCCCCC23)c(C(F)(F)F)c1

>  <standard_type>  (344) 
IC50

>  <standard_relation>  (344) 
=

>  <standard_value>  (344) 
1000.0

>  <standard_units>  (344) 
nM

>  <target_pref_name>  (344) 
Androgen Receptor

>  <target_chembl_id>  (344) 
CHEMBL1871

>  <target_organism>  (344) 
Homo sapiens

>  <pchembl_median>  (344) 
5.57

$$$$
CHEMBL2159561
     RDKit          2D

 22 24  0  0  0  0  0  0  0  0999 V2000
   -6.9575    7.0259    0.0000 N   0  0  0  0  0  0  0  0  0  0  0  0
   -5.6698    6.2566    0.0000 C   0  0  0  0  0  0  0  0  0  0  0  0
   -4.3821    5.4872    0.0000 C   0  0  0  0  0  0  0  0  0  0  0  0
   -3.0720    6.2177    0.0000 C   0  0  0  0  0  0  0  0  0  0  0  0
   -1.7843    5.4484    0.0000 C   0  0  0  0  0  0  0  0  0  0  0  0
   -1.8068    3.9485    0.0000 C   0  0  0  0  0  0  0  0  0  0  0  0
   -0.5191    3.1792    0.0000 C   0  0  0  0  0  0  0  0  0  0  0  0
    0.8602    3.7687    0.0000 N   0  0  0  0  0  0  0  0  0  0  0  0
    1.8471    2.6391    0.0000 O   0  0  0  0  0  0  0  0  0  0  0  0
    1.0777    1.3515    0.0000 C   0  0  0  0  0  0  0  0  0  0  0  0
    1.7286    0.0000    0.0000 C   0  0  0  0  0  0  0  0  0  0  0  0
    1.0777   -1.3515    0.0000 C   0  0  0  0  0  0  0  0  0  0  0  0
   -0.3846   -1.6852    0.0000 C   0  0  0  0  0  0  0  0  0  0  0  0
   -1.5574   -0.7500    0.0000 C   0  0  0  0  0  0  0  0  0  0  0  0
   -1.5574    0.7500    0.0000 C   0  0  0  0  0  0  0  0  0  0  0  0
   -0.3846    1.6852    0.0000 C   0  0  0  0  0  0  0  0  0  0  0  0
   -3.1169    3.2181    0.0000 C   0  0  0  0  0  0  0  0  0  0  0  0
   -4.4046    3.9874    0.0000 C   0  0  0  0  0  0  0  0  0  0  0  0
   -5.7147    3.2569    0.0000 C   0  0  0  0  0  0  0  0  0  0  0  0
   -7.0248    2.5264    0.0000 F   0  0  0  0  0  0  0  0  0  0  0  0
   -4.9842    1.9468    0.0000 F   0  0  0  0  0  0  0  0  0  0  0  0
   -6.4452    4.5670    0.0000 F   0  0  0  0  0  0  0  0  0  0  0  0
  1  2  3  0
  2  3  1  0
  3  4  2  0
  4  5  1  0
  5  6  2  0
  6  7  1  0
  7  8  2  0
  8  9  1  0
  9 10  1  0
 10 11  1  0
 11 12  1  0
 12 13  1  0
 13 14  1  0
 14 15  1  0
 15 16  1  0
  6 17  1  0
 17 18  2  0
 18 19  1  0
 19 20  1  0
 19 21  1  0
 19 22  1  0
 18  3  1  0
 16  7  1  0
 16 10  1  0
M  END
>  <assay_chembl_id>  (345) 
CHEMBL2162624

>  <assay_description>  (345) 
Displacement of [3H]R1881 from wild type human androgen receptor expressed in COS-1 cells co-transfected with pSG5 after 15 mins by scintillation assay

>  <parent_molecule_chembl_id>  (345) 
CHEMBL2159561

>  <canonical_smiles>  (345) 
N#Cc1ccc(C2=NOC3CCCCCC23)cc1C(F)(F)F

>  <standard_type>  (345) 
IC50

>  <standard_relation>  (345) 
=

>  <standard_value>  (345) 
43.65

>  <standard_units>  (345) 
nM

>  <target_pref_name>  (345) 
Androgen Receptor

>  <target_chembl_id>  (345) 
CHEMBL1871

>  <target_organism>  (345) 
Homo sapiens

>  <pchembl_median>  (345) 
5.92

$$$$
CHEMBL2159573
     RDKit          2D

 20 22  0  0  0  0  0  0  0  0999 V2000
   -6.9199   -4.5797    0.0000 F   0  0  0  0  0  0  0  0  0  0  0  0
   -5.4933   -4.1162    0.0000 C   0  0  0  0  0  0  0  0  0  0  0  0
   -5.1814   -2.6490    0.0000 C   0  0  0  0  0  0  0  0  0  0  0  0
   -3.7548   -2.1855    0.0000 C   0  0  0  0  0  0  0  0  0  0  0  0
   -2.6401   -3.1891    0.0000 C   0  0  0  0  0  0  0  0  0  0  0  0
   -1.2135   -2.7256    0.0000 C   0  0  0  0  0  0  0  0  0  0  0  0
    0.0000   -3.6073    0.0000 N   0  0  0  0  0  0  0  0  0  0  0  0
    1.2135   -2.7256    0.0000 O   0  0  0  0  0  0  0  0  0  0  0  0
    0.7500   -1.2990    0.0000 C   0  0  0  0  0  0  0  0  0  0  0  0
    1.5000    0.0000    0.0000 C   0  0  0  0  0  0  0  0  0  0  0  0
    0.7500    1.2990    0.0000 C   0  0  0  0  0  0  0  0  0  0  0  0
   -0.7500    1.2990    0.0000 C   0  0  0  0  0  0  0  0  0  0  0  0
   -1.5000    0.0000    0.0000 C   0  0  0  0  0  0  0  0  0  0  0  0
   -0.7500   -1.2990    0.0000 C   0  0  0  0  0  0  0  0  0  0  0  0
   -2.9520   -4.6564    0.0000 C   0  0  0  0  0  0  0  0  0  0  0  0
   -1.8373   -5.6601    0.0000 C   0  0  0  0  0  0  0  0  0  0  0  0
   -0.7225   -6.6638    0.0000 F   0  0  0  0  0  0  0  0  0  0  0  0
   -2.8410   -6.7748    0.0000 F   0  0  0  0  0  0  0  0  0  0  0  0
   -0.8336   -4.5453    0.0000 F   0  0  0  0  0  0  0  0  0  0  0  0
   -4.3786   -5.1199    0.0000 C   0  0  0  0  0  0  0  0  0  0  0  0
  1  2  1  0
  2  3  2  0
  3  4  1  0
  4  5  2  0
  5  6  1  0
  6  7  2  0
  7  8  1  0
  8  9  1  0
  9 10  1  0
 10 11  1  0
 11 12  1  0
 12 13  1  0
 13 14  1  0
  5 15  1  0
 15 16  1  0
 16 17  1  0
 16 18  1  0
 16 19  1  0
 15 20  2  0
 20  2  1  0
 14  6  1  0
 14  9  1  0
M  END
>  <assay_chembl_id>  (346) 
CHEMBL2162624

>  <assay_description>  (346) 
Displacement of [3H]R1881 from wild type human androgen receptor expressed in COS-1 cells co-transfected with pSG5 after 15 mins by scintillation assay

>  <parent_molecule_chembl_id>  (346) 
CHEMBL2159573

>  <canonical_smiles>  (346) 
Fc1ccc(C2=NOC3CCCCC23)c(C(F)(F)F)c1

>  <standard_type>  (346) 
IC50

>  <standard_relation>  (346) 
=

>  <standard_value>  (346) 
977.24

>  <standard_units>  (346) 
nM

>  <target_pref_name>  (346) 
Androgen Receptor

>  <target_chembl_id>  (346) 
CHEMBL1871

>  <target_organism>  (346) 
Homo sapiens

>  <pchembl_median>  (346) 
6.12

$$$$
CHEMBL2159572
     RDKit          2D

 20 22  0  0  0  0  0  0  0  0999 V2000
   -6.9199   -4.5797    0.0000 F   0  0  0  0  0  0  0  0  0  0  0  0
   -5.4933   -4.1162    0.0000 C   0  0  0  0  0  0  0  0  0  0  0  0
   -5.1814   -2.6490    0.0000 C   0  0  0  0  0  0  0  0  0  0  0  0
   -3.7548   -2.1855    0.0000 C   0  0  0  0  0  0  0  0  0  0  0  0
   -2.6401   -3.1891    0.0000 C   0  0  0  0  0  0  0  0  0  0  0  0
   -1.2135   -2.7256    0.0000 C   0  0  0  0  0  0  0  0  0  0  0  0
    0.0000   -3.6073    0.0000 N   0  0  0  0  0  0  0  0  0  0  0  0
    1.2135   -2.7256    0.0000 O   0  0  0  0  0  0  0  0  0  0  0  0
    0.7500   -1.2990    0.0000 C   0  0  0  0  0  0  0  0  0  0  0  0
    1.5000    0.0000    0.0000 C   0  0  0  0  0  0  0  0  0  0  0  0
    0.7500    1.2990    0.0000 C   0  0  0  0  0  0  0  0  0  0  0  0
   -0.7500    1.2990    0.0000 C   0  0  0  0  0  0  0  0  0  0  0  0
   -1.5000    0.0000    0.0000 C   0  0  0  0  0  0  0  0  0  0  0  0
   -0.7500   -1.2990    0.0000 C   0  0  0  0  0  0  0  0  0  0  0  0
   -2.9520   -4.6564    0.0000 C   0  0  0  0  0  0  0  0  0  0  0  0
   -4.3786   -5.1199    0.0000 C   0  0  0  0  0  0  0  0  0  0  0  0
   -4.6904   -6.5871    0.0000 C   0  0  0  0  0  0  0  0  0  0  0  0
   -5.0023   -8.0543    0.0000 F   0  0  0  0  0  0  0  0  0  0  0  0
   -3.2232   -6.8990    0.0000 F   0  0  0  0  0  0  0  0  0  0  0  0
   -6.1577   -6.2752    0.0000 F   0  0  0  0  0  0  0  0  0  0  0  0
  1  2  1  0
  2  3  2  0
  3  4  1  0
  4  5  2  0
  5  6  1  0
  6  7  2  0
  7  8  1  0
  8  9  1  0
  9 10  1  0
 10 11  1  0
 11 12  1  0
 12 13  1  0
 13 14  1  0
  5 15  1  0
 15 16  2  0
 16 17  1  0
 17 18  1  0
 17 19  1  0
 17 20  1  0
 16  2  1  0
 14  6  1  0
 14  9  1  0
M  END
>  <assay_chembl_id>  (347) 
CHEMBL2162624

>  <assay_description>  (347) 
Displacement of [3H]R1881 from wild type human androgen receptor expressed in COS-1 cells co-transfected with pSG5 after 15 mins by scintillation assay

>  <parent_molecule_chembl_id>  (347) 
CHEMBL2159572

>  <canonical_smiles>  (347) 
Fc1ccc(C2=NOC3CCCCC23)cc1C(F)(F)F

>  <standard_type>  (347) 
IC50

>  <standard_relation>  (347) 
=

>  <standard_value>  (347) 
1096.48

>  <standard_units>  (347) 
nM

>  <target_pref_name>  (347) 
Androgen Receptor

>  <target_chembl_id>  (347) 
CHEMBL1871

>  <target_organism>  (347) 
Homo sapiens

>  <pchembl_median>  (347) 
6.84

$$$$
CHEMBL2159571
     RDKit          2D

 22 24  0  0  0  0  0  0  0  0999 V2000
   -7.2317   -6.0469    0.0000 O   0  0  0  0  0  0  0  0  0  0  0  0
   -6.9199   -4.5797    0.0000 N   0  0  0  0  0  4  0  0  0  0  0  0
   -8.0346   -3.5760    0.0000 O   0  0  0  0  0  1  0  0  0  0  0  0
   -5.4933   -4.1162    0.0000 C   0  0  0  0  0  0  0  0  0  0  0  0
   -5.1814   -2.6490    0.0000 C   0  0  0  0  0  0  0  0  0  0  0  0
   -3.7548   -2.1855    0.0000 C   0  0  0  0  0  0  0  0  0  0  0  0
   -2.6401   -3.1891    0.0000 C   0  0  0  0  0  0  0  0  0  0  0  0
   -1.2135   -2.7256    0.0000 C   0  0  0  0  0  0  0  0  0  0  0  0
    0.0000   -3.6073    0.0000 N   0  0  0  0  0  0  0  0  0  0  0  0
    1.2135   -2.7256    0.0000 O   0  0  0  0  0  0  0  0  0  0  0  0
    0.7500   -1.2990    0.0000 C   0  0  0  0  0  0  0  0  0  0  0  0
    1.5000    0.0000    0.0000 C   0  0  0  0  0  0  0  0  0  0  0  0
    0.7500    1.2990    0.0000 C   0  0  0  0  0  0  0  0  0  0  0  0
   -0.7500    1.2990    0.0000 C   0  0  0  0  0  0  0  0  0  0  0  0
   -1.5000    0.0000    0.0000 C   0  0  0  0  0  0  0  0  0  0  0  0
   -0.7500   -1.2990    0.0000 C   0  0  0  0  0  0  0  0  0  0  0  0
   -2.9520   -4.6564    0.0000 C   0  0  0  0  0  0  0  0  0  0  0  0
   -1.8373   -5.6601    0.0000 C   0  0  0  0  0  0  0  0  0  0  0  0
   -0.7225   -6.6638    0.0000 F   0  0  0  0  0  0  0  0  0  0  0  0
   -2.8410   -6.7748    0.0000 F   0  0  0  0  0  0  0  0  0  0  0  0
   -0.8336   -4.5453    0.0000 F   0  0  0  0  0  0  0  0  0  0  0  0
   -4.3786   -5.1199    0.0000 C   0  0  0  0  0  0  0  0  0  0  0  0
  1  2  2  0
  2  3  1  0
  2  4  1  0
  4  5  2  0
  5  6  1  0
  6  7  2  0
  7  8  1  0
  8  9  2  0
  9 10  1  0
 10 11  1  0
 11 12  1  6
 12 13  1  0
 13 14  1  0
 14 15  1  0
 16 15  1  6
  7 17  1  0
 17 18  1  0
 18 19  1  0
 18 20  1  0
 18 21  1  0
 17 22  2  0
 22  4  1  0
 16  8  1  0
 16 11  1  0
M  CHG  2   2   1   3  -1
M  END
>  <assay_chembl_id>  (348) 
CHEMBL2162624

>  <assay_description>  (348) 
Displacement of [3H]R1881 from wild type human androgen receptor expressed in COS-1 cells co-transfected with pSG5 after 15 mins by scintillation assay

>  <parent_molecule_chembl_id>  (348) 
CHEMBL2159571

>  <canonical_smiles>  (348) 
O=[N+]([O-])c1ccc(C2=NO[C@H]3CCCC[C@@H]23)c(C(F)(F)F)c1

>  <standard_type>  (348) 
IC50

>  <standard_relation>  (348) 
=

>  <standard_value>  (348) 
263.03

>  <standard_units>  (348) 
nM

>  <target_pref_name>  (348) 
Androgen Receptor

>  <target_chembl_id>  (348) 
CHEMBL1871

>  <target_organism>  (348) 
Homo sapiens

>  <pchembl_median>  (348) 
7.66

$$$$
CHEMBL2159570
     RDKit          2D

 22 24  0  0  0  0  0  0  0  0999 V2000
   -7.2317   -6.0469    0.0000 O   0  0  0  0  0  0  0  0  0  0  0  0
   -6.9199   -4.5797    0.0000 N   0  0  0  0  0  4  0  0  0  0  0  0
   -8.0346   -3.5760    0.0000 O   0  0  0  0  0  1  0  0  0  0  0  0
   -5.4933   -4.1162    0.0000 C   0  0  0  0  0  0  0  0  0  0  0  0
   -5.1814   -2.6490    0.0000 C   0  0  0  0  0  0  0  0  0  0  0  0
   -3.7548   -2.1855    0.0000 C   0  0  0  0  0  0  0  0  0  0  0  0
   -2.6401   -3.1891    0.0000 C   0  0  0  0  0  0  0  0  0  0  0  0
   -1.2135   -2.7256    0.0000 C   0  0  0  0  0  0  0  0  0  0  0  0
    0.0000   -3.6073    0.0000 N   0  0  0  0  0  0  0  0  0  0  0  0
    1.2135   -2.7256    0.0000 O   0  0  0  0  0  0  0  0  0  0  0  0
    0.7500   -1.2990    0.0000 C   0  0  0  0  0  0  0  0  0  0  0  0
    1.5000    0.0000    0.0000 C   0  0  0  0  0  0  0  0  0  0  0  0
    0.7500    1.2990    0.0000 C   0  0  0  0  0  0  0  0  0  0  0  0
   -0.7500    1.2990    0.0000 C   0  0  0  0  0  0  0  0  0  0  0  0
   -1.5000    0.0000    0.0000 C   0  0  0  0  0  0  0  0  0  0  0  0
   -0.7500   -1.2990    0.0000 C   0  0  0  0  0  0  0  0  0  0  0  0
   -2.9520   -4.6564    0.0000 C   0  0  0  0  0  0  0  0  0  0  0  0
   -1.8373   -5.6601    0.0000 C   0  0  0  0  0  0  0  0  0  0  0  0
   -0.7225   -6.6638    0.0000 F   0  0  0  0  0  0  0  0  0  0  0  0
   -2.8410   -6.7748    0.0000 F   0  0  0  0  0  0  0  0  0  0  0  0
   -0.8336   -4.5453    0.0000 F   0  0  0  0  0  0  0  0  0  0  0  0
   -4.3786   -5.1199    0.0000 C   0  0  0  0  0  0  0  0  0  0  0  0
  1  2  2  0
  2  3  1  0
  2  4  1  0
  4  5  2  0
  5  6  1  0
  6  7  2  0
  7  8  1  0
  8  9  2  0
  9 10  1  0
 10 11  1  0
 11 12  1  1
 12 13  1  0
 13 14  1  0
 14 15  1  0
 16 15  1  1
  7 17  1  0
 17 18  1  0
 18 19  1  0
 18 20  1  0
 18 21  1  0
 17 22  2  0
 22  4  1  0
 16  8  1  0
 16 11  1  0
M  CHG  2   2   1   3  -1
M  END
>  <assay_chembl_id>  (349) 
CHEMBL2162624

>  <assay_description>  (349) 
Displacement of [3H]R1881 from wild type human androgen receptor expressed in COS-1 cells co-transfected with pSG5 after 15 mins by scintillation assay

>  <parent_molecule_chembl_id>  (349) 
CHEMBL2159570

>  <canonical_smiles>  (349) 
O=[N+]([O-])c1ccc(C2=NO[C@@H]3CCCC[C@H]23)c(C(F)(F)F)c1

>  <standard_type>  (349) 
IC50

>  <standard_relation>  (349) 
=

>  <standard_value>  (349) 
128.82

>  <standard_units>  (349) 
nM

>  <target_pref_name>  (349) 
Androgen Receptor

>  <target_chembl_id>  (349) 
CHEMBL1871

>  <target_organism>  (349) 
Homo sapiens

>  <pchembl_median>  (349) 
6.65

$$$$
CHEMBL2159569
     RDKit          2D

 22 24  0  0  0  0  0  0  0  0999 V2000
   -7.2317   -6.0469    0.0000 O   0  0  0  0  0  0  0  0  0  0  0  0
   -6.9199   -4.5797    0.0000 N   0  0  0  0  0  4  0  0  0  0  0  0
   -8.0346   -3.5760    0.0000 O   0  0  0  0  0  1  0  0  0  0  0  0
   -5.4933   -4.1162    0.0000 C   0  0  0  0  0  0  0  0  0  0  0  0
   -5.1814   -2.6490    0.0000 C   0  0  0  0  0  0  0  0  0  0  0  0
   -3.7548   -2.1855    0.0000 C   0  0  0  0  0  0  0  0  0  0  0  0
   -2.6401   -3.1891    0.0000 C   0  0  0  0  0  0  0  0  0  0  0  0
   -1.2135   -2.7256    0.0000 C   0  0  0  0  0  0  0  0  0  0  0  0
    0.0000   -3.6073    0.0000 N   0  0  0  0  0  0  0  0  0  0  0  0
    1.2135   -2.7256    0.0000 O   0  0  0  0  0  0  0  0  0  0  0  0
    0.7500   -1.2990    0.0000 C   0  0  0  0  0  0  0  0  0  0  0  0
    1.5000    0.0000    0.0000 C   0  0  0  0  0  0  0  0  0  0  0  0
    0.7500    1.2990    0.0000 C   0  0  0  0  0  0  0  0  0  0  0  0
   -0.7500    1.2990    0.0000 C   0  0  0  0  0  0  0  0  0  0  0  0
   -1.5000    0.0000    0.0000 C   0  0  0  0  0  0  0  0  0  0  0  0
   -0.7500   -1.2990    0.0000 C   0  0  0  0  0  0  0  0  0  0  0  0
   -2.9520   -4.6564    0.0000 C   0  0  0  0  0  0  0  0  0  0  0  0
   -4.3786   -5.1199    0.0000 C   0  0  0  0  0  0  0  0  0  0  0  0
   -4.6904   -6.5871    0.0000 C   0  0  0  0  0  0  0  0  0  0  0  0
   -5.0023   -8.0543    0.0000 F   0  0  0  0  0  0  0  0  0  0  0  0
   -3.2232   -6.8990    0.0000 F   0  0  0  0  0  0  0  0  0  0  0  0
   -6.1577   -6.2752    0.0000 F   0  0  0  0  0  0  0  0  0  0  0  0
  1  2  2  0
  2  3  1  0
  2  4  1  0
  4  5  2  0
  5  6  1  0
  6  7  2  0
  7  8  1  0
  8  9  2  0
  9 10  1  0
 10 11  1  0
 11 12  1  0
 12 13  1  0
 13 14  1  0
 14 15  1  0
 15 16  1  0
  7 17  1  0
 17 18  2  0
 18 19  1  0
 19 20  1  0
 19 21  1  0
 19 22  1  0
 18  4  1  0
 16  8  1  0
 16 11  1  0
M  CHG  2   2   1   3  -1
M  END
>  <assay_chembl_id>  (350) 
CHEMBL2162624

>  <assay_description>  (350) 
Displacement of [3H]R1881 from wild type human androgen receptor expressed in COS-1 cells co-transfected with pSG5 after 15 mins by scintillation assay

>  <parent_molecule_chembl_id>  (350) 
CHEMBL2159569

>  <canonical_smiles>  (350) 
O=[N+]([O-])c1ccc(C2=NOC3CCCCC23)cc1C(F)(F)F

>  <standard_type>  (350) 
IC50

>  <standard_relation>  (350) 
=

>  <standard_value>  (350) 
120.23

>  <standard_units>  (350) 
nM

>  <target_pref_name>  (350) 
Androgen Receptor

>  <target_chembl_id>  (350) 
CHEMBL1871

>  <target_organism>  (350) 
Homo sapiens

>  <pchembl_median>  (350) 
5.02

$$$$
CHEMBL2159568
     RDKit          2D

 21 23  0  0  0  0  0  0  0  0999 V2000
   -5.0023   -8.0543    0.0000 N   0  0  0  0  0  0  0  0  0  0  0  0
   -4.6904   -6.5871    0.0000 C   0  0  0  0  0  0  0  0  0  0  0  0
   -4.3786   -5.1199    0.0000 C   0  0  0  0  0  0  0  0  0  0  0  0
   -5.4933   -4.1162    0.0000 C   0  0  0  0  0  0  0  0  0  0  0  0
   -5.1814   -2.6490    0.0000 C   0  0  0  0  0  0  0  0  0  0  0  0
   -3.7548   -2.1855    0.0000 C   0  0  0  0  0  0  0  0  0  0  0  0
   -2.6401   -3.1891    0.0000 C   0  0  0  0  0  0  0  0  0  0  0  0
   -1.2135   -2.7256    0.0000 C   0  0  0  0  0  0  0  0  0  0  0  0
    0.0000   -3.6073    0.0000 N   0  0  0  0  0  0  0  0  0  0  0  0
    1.2135   -2.7256    0.0000 O   0  0  0  0  0  0  0  0  0  0  0  0
    0.7500   -1.2990    0.0000 C   0  0  0  0  0  0  0  0  0  0  0  0
    1.5000    0.0000    0.0000 C   0  0  0  0  0  0  0  0  0  0  0  0
    0.7500    1.2990    0.0000 C   0  0  0  0  0  0  0  0  0  0  0  0
   -0.7500    1.2990    0.0000 C   0  0  0  0  0  0  0  0  0  0  0  0
   -1.5000    0.0000    0.0000 C   0  0  0  0  0  0  0  0  0  0  0  0
   -0.7500   -1.2990    0.0000 C   0  0  0  0  0  0  0  0  0  0  0  0
   -2.9520   -4.6564    0.0000 C   0  0  0  0  0  0  0  0  0  0  0  0
   -1.8373   -5.6601    0.0000 C   0  0  0  0  0  0  0  0  0  0  0  0
   -0.7225   -6.6638    0.0000 F   0  0  0  0  0  0  0  0  0  0  0  0
   -2.8410   -6.7748    0.0000 F   0  0  0  0  0  0  0  0  0  0  0  0
   -0.8336   -4.5453    0.0000 F   0  0  0  0  0  0  0  0  0  0  0  0
  1  2  3  0
  2  3  1  0
  3  4  2  0
  4  5  1  0
  5  6  2  0
  6  7  1  0
  7  8  1  0
  8  9  2  0
  9 10  1  0
 10 11  1  0
 11 12  1  0
 12 13  1  0
 13 14  1  0
 14 15  1  0
 15 16  1  0
  7 17  2  0
 17 18  1  0
 18 19  1  0
 18 20  1  0
 18 21  1  0
 17  3  1  0
 16  8  1  0
 16 11  1  0
M  END
>  <assay_chembl_id>  (351) 
CHEMBL2162624

>  <assay_description>  (351) 
Displacement of [3H]R1881 from wild type human androgen receptor expressed in COS-1 cells co-transfected with pSG5 after 15 mins by scintillation assay

>  <parent_molecule_chembl_id>  (351) 
CHEMBL2159568

>  <canonical_smiles>  (351) 
N#Cc1cccc(C2=NOC3CCCCC23)c1C(F)(F)F

>  <standard_type>  (351) 
IC50

>  <standard_relation>  (351) 
=

>  <standard_value>  (351) 
64.57

>  <standard_units>  (351) 
nM

>  <target_pref_name>  (351) 
Androgen Receptor

>  <target_chembl_id>  (351) 
CHEMBL1871

>  <target_organism>  (351) 
Homo sapiens

>  <pchembl_median>  (351) 
5.02

$$$$
CHEMBL2159567
     RDKit          2D

 21 23  0  0  0  0  0  0  0  0999 V2000
   -8.3464   -5.0433    0.0000 N   0  0  0  0  0  0  0  0  0  0  0  0
   -6.9199   -4.5797    0.0000 C   0  0  0  0  0  0  0  0  0  0  0  0
   -5.4933   -4.1162    0.0000 C   0  0  0  0  0  0  0  0  0  0  0  0
   -5.1814   -2.6490    0.0000 C   0  0  0  0  0  0  0  0  0  0  0  0
   -3.7548   -2.1855    0.0000 C   0  0  0  0  0  0  0  0  0  0  0  0
   -2.6401   -3.1891    0.0000 C   0  0  0  0  0  0  0  0  0  0  0  0
   -1.2135   -2.7256    0.0000 C   0  0  0  0  0  0  0  0  0  0  0  0
    0.0000   -3.6073    0.0000 N   0  0  0  0  0  0  0  0  0  0  0  0
    1.2135   -2.7256    0.0000 O   0  0  0  0  0  0  0  0  0  0  0  0
    0.7500   -1.2990    0.0000 C   0  0  0  0  0  0  0  0  0  0  0  0
    1.5000    0.0000    0.0000 C   0  0  0  0  0  0  0  0  0  0  0  0
    0.7500    1.2990    0.0000 C   0  0  0  0  0  0  0  0  0  0  0  0
   -0.7500    1.2990    0.0000 C   0  0  0  0  0  0  0  0  0  0  0  0
   -1.5000    0.0000    0.0000 C   0  0  0  0  0  0  0  0  0  0  0  0
   -0.7500   -1.2990    0.0000 C   0  0  0  0  0  0  0  0  0  0  0  0
   -2.9520   -4.6564    0.0000 C   0  0  0  0  0  0  0  0  0  0  0  0
   -1.8373   -5.6601    0.0000 C   0  0  0  0  0  0  0  0  0  0  0  0
   -0.7225   -6.6638    0.0000 F   0  0  0  0  0  0  0  0  0  0  0  0
   -2.8410   -6.7748    0.0000 F   0  0  0  0  0  0  0  0  0  0  0  0
   -0.8336   -4.5453    0.0000 F   0  0  0  0  0  0  0  0  0  0  0  0
   -4.3786   -5.1199    0.0000 C   0  0  0  0  0  0  0  0  0  0  0  0
  1  2  3  0
  2  3  1  0
  3  4  2  0
  4  5  1  0
  5  6  2  0
  6  7  1  0
  7  8  2  0
  8  9  1  0
  9 10  1  0
 10 11  1  0
 11 12  1  0
 12 13  1  0
 13 14  1  0
 14 15  1  0
  6 16  1  0
 16 17  1  0
 17 18  1  0
 17 19  1  0
 17 20  1  0
 16 21  2  0
 21  3  1  0
 15  7  1  0
 15 10  1  0
M  END
>  <assay_chembl_id>  (352) 
CHEMBL2162624

>  <assay_description>  (352) 
Displacement of [3H]R1881 from wild type human androgen receptor expressed in COS-1 cells co-transfected with pSG5 after 15 mins by scintillation assay

>  <parent_molecule_chembl_id>  (352) 
CHEMBL2159567

>  <canonical_smiles>  (352) 
N#Cc1ccc(C2=NOC3CCCCC23)c(C(F)(F)F)c1

>  <standard_type>  (352) 
IC50

>  <standard_relation>  (352) 
=

>  <standard_value>  (352) 
1148.15

>  <standard_units>  (352) 
nM

>  <target_pref_name>  (352) 
Androgen Receptor

>  <target_chembl_id>  (352) 
CHEMBL1871

>  <target_organism>  (352) 
Homo sapiens

>  <pchembl_median>  (352) 
4.98

$$$$
CHEMBL2159566
     RDKit          2D

 21 23  0  0  0  0  0  0  0  0999 V2000
   -8.3464   -5.0433    0.0000 N   0  0  0  0  0  0  0  0  0  0  0  0
   -6.9199   -4.5797    0.0000 C   0  0  0  0  0  0  0  0  0  0  0  0
   -5.4933   -4.1162    0.0000 C   0  0  0  0  0  0  0  0  0  0  0  0
   -5.1814   -2.6490    0.0000 C   0  0  0  0  0  0  0  0  0  0  0  0
   -3.7548   -2.1855    0.0000 C   0  0  0  0  0  0  0  0  0  0  0  0
   -2.6401   -3.1891    0.0000 C   0  0  0  0  0  0  0  0  0  0  0  0
   -1.2135   -2.7256    0.0000 C   0  0  0  0  0  0  0  0  0  0  0  0
    0.0000   -3.6073    0.0000 N   0  0  0  0  0  0  0  0  0  0  0  0
    1.2135   -2.7256    0.0000 O   0  0  0  0  0  0  0  0  0  0  0  0
    0.7500   -1.2990    0.0000 C   0  0  0  0  0  0  0  0  0  0  0  0
    1.5000    0.0000    0.0000 C   0  0  0  0  0  0  0  0  0  0  0  0
    0.7500    1.2990    0.0000 C   0  0  0  0  0  0  0  0  0  0  0  0
   -0.7500    1.2990    0.0000 C   0  0  0  0  0  0  0  0  0  0  0  0
   -1.5000    0.0000    0.0000 C   0  0  0  0  0  0  0  0  0  0  0  0
   -0.7500   -1.2990    0.0000 C   0  0  0  0  0  0  0  0  0  0  0  0
   -2.9520   -4.6564    0.0000 C   0  0  0  0  0  0  0  0  0  0  0  0
   -4.3786   -5.1199    0.0000 C   0  0  0  0  0  0  0  0  0  0  0  0
   -4.6904   -6.5871    0.0000 C   0  0  0  0  0  0  0  0  0  0  0  0
   -5.0023   -8.0543    0.0000 F   0  0  0  0  0  0  0  0  0  0  0  0
   -3.2232   -6.8990    0.0000 F   0  0  0  0  0  0  0  0  0  0  0  0
   -6.1577   -6.2752    0.0000 F   0  0  0  0  0  0  0  0  0  0  0  0
  1  2  3  0
  2  3  1  0
  3  4  2  0
  4  5  1  0
  5  6  2  0
  6  7  1  0
  7  8  2  0
  8  9  1  0
  9 10  1  0
 10 11  1  0
 11 12  1  0
 12 13  1  0
 13 14  1  0
 14 15  1  0
  6 16  1  0
 16 17  2  0
 17 18  1  0
 18 19  1  0
 18 20  1  0
 18 21  1  0
 17  3  1  0
 15  7  1  0
 15 10  1  0
M  END
>  <assay_chembl_id>  (353) 
CHEMBL2162624

>  <assay_description>  (353) 
Displacement of [3H]R1881 from wild type human androgen receptor expressed in COS-1 cells co-transfected with pSG5 after 15 mins by scintillation assay

>  <parent_molecule_chembl_id>  (353) 
CHEMBL2159566

>  <canonical_smiles>  (353) 
N#Cc1ccc(C2=NOC3CCCCC23)cc1C(F)(F)F

>  <standard_type>  (353) 
IC50

>  <standard_relation>  (353) 
=

>  <standard_value>  (353) 
27.54

>  <standard_units>  (353) 
nM

>  <target_pref_name>  (353) 
Androgen Receptor

>  <target_chembl_id>  (353) 
CHEMBL1871

>  <target_organism>  (353) 
Homo sapiens

>  <pchembl_median>  (353) 
5.43

$$$$
CHEMBL2159565
     RDKit          2D

 19 21  0  0  0  0  0  0  0  0999 V2000
   -7.9140    1.9635    0.0000 F   0  0  0  0  0  0  0  0  0  0  0  0
   -6.4140    1.9635    0.0000 C   0  0  0  0  0  0  0  0  0  0  0  0
   -5.6640    3.2626    0.0000 C   0  0  0  0  0  0  0  0  0  0  0  0
   -4.1640    3.2626    0.0000 C   0  0  0  0  0  0  0  0  0  0  0  0
   -3.4140    1.9635    0.0000 C   0  0  0  0  0  0  0  0  0  0  0  0
   -1.9140    1.9635    0.0000 C   0  0  0  0  0  0  0  0  0  0  0  0
   -1.0323    3.1771    0.0000 N   0  0  0  0  0  0  0  0  0  0  0  0
    0.3943    2.7135    0.0000 O   0  0  0  0  0  0  0  0  0  0  0  0
    0.3943    1.2135    0.0000 C   0  0  0  0  0  0  0  0  0  0  0  0
    1.2760    0.0000    0.0000 C   0  0  0  0  0  0  0  0  0  0  0  0
    0.3943   -1.2135    0.0000 C   0  0  0  0  0  0  0  0  0  0  0  0
   -1.0323   -0.7500    0.0000 C   0  0  0  0  0  0  0  0  0  0  0  0
   -1.0323    0.7500    0.0000 C   0  0  0  0  0  0  0  0  0  0  0  0
   -4.1640    0.6645    0.0000 C   0  0  0  0  0  0  0  0  0  0  0  0
   -3.4140   -0.6346    0.0000 C   0  0  0  0  0  0  0  0  0  0  0  0
   -2.6640   -1.9336    0.0000 F   0  0  0  0  0  0  0  0  0  0  0  0
   -4.7130   -1.3846    0.0000 F   0  0  0  0  0  0  0  0  0  0  0  0
   -2.1149    0.1154    0.0000 F   0  0  0  0  0  0  0  0  0  0  0  0
   -5.6640    0.6645    0.0000 C   0  0  0  0  0  0  0  0  0  0  0  0
  1  2  1  0
  2  3  2  0
  3  4  1  0
  4  5  2  0
  5  6  1  0
  6  7  2  0
  7  8  1  0
  8  9  1  0
  9 10  1  0
 10 11  1  0
 11 12  1  0
 12 13  1  0
  5 14  1  0
 14 15  1  0
 15 16  1  0
 15 17  1  0
 15 18  1  0
 14 19  2  0
 19  2  1  0
 13  6  1  0
 13  9  1  0
M  END
>  <assay_chembl_id>  (354) 
CHEMBL2162624

>  <assay_description>  (354) 
Displacement of [3H]R1881 from wild type human androgen receptor expressed in COS-1 cells co-transfected with pSG5 after 15 mins by scintillation assay

>  <parent_molecule_chembl_id>  (354) 
CHEMBL2159565

>  <canonical_smiles>  (354) 
Fc1ccc(C2=NOC3CCCC23)c(C(F)(F)F)c1

>  <standard_type>  (354) 
IC50

>  <standard_relation>  (354) 
=

>  <standard_value>  (354) 
1548.82

>  <standard_units>  (354) 
nM

>  <target_pref_name>  (354) 
Androgen Receptor

>  <target_chembl_id>  (354) 
CHEMBL1871

>  <target_organism>  (354) 
Homo sapiens

>  <pchembl_median>  (354) 
6.06

$$$$
CHEMBL2159564
     RDKit          2D

 19 21  0  0  0  0  0  0  0  0999 V2000
   -7.9140    1.9635    0.0000 F   0  0  0  0  0  0  0  0  0  0  0  0
   -6.4140    1.9635    0.0000 C   0  0  0  0  0  0  0  0  0  0  0  0
   -5.6640    3.2626    0.0000 C   0  0  0  0  0  0  0  0  0  0  0  0
   -4.1640    3.2626    0.0000 C   0  0  0  0  0  0  0  0  0  0  0  0
   -3.4140    1.9635    0.0000 C   0  0  0  0  0  0  0  0  0  0  0  0
   -1.9140    1.9635    0.0000 C   0  0  0  0  0  0  0  0  0  0  0  0
   -1.0323    3.1771    0.0000 N   0  0  0  0  0  0  0  0  0  0  0  0
    0.3943    2.7135    0.0000 O   0  0  0  0  0  0  0  0  0  0  0  0
    0.3943    1.2135    0.0000 C   0  0  0  0  0  0  0  0  0  0  0  0
    1.2760    0.0000    0.0000 C   0  0  0  0  0  0  0  0  0  0  0  0
    0.3943   -1.2135    0.0000 C   0  0  0  0  0  0  0  0  0  0  0  0
   -1.0323   -0.7500    0.0000 C   0  0  0  0  0  0  0  0  0  0  0  0
   -1.0323    0.7500    0.0000 C   0  0  0  0  0  0  0  0  0  0  0  0
   -4.1640    0.6645    0.0000 C   0  0  0  0  0  0  0  0  0  0  0  0
   -5.6640    0.6645    0.0000 C   0  0  0  0  0  0  0  0  0  0  0  0
   -6.4140   -0.6346    0.0000 C   0  0  0  0  0  0  0  0  0  0  0  0
   -7.1640   -1.9336    0.0000 F   0  0  0  0  0  0  0  0  0  0  0  0
   -5.1149   -1.3846    0.0000 F   0  0  0  0  0  0  0  0  0  0  0  0
   -7.7130    0.1154    0.0000 F   0  0  0  0  0  0  0  0  0  0  0  0
  1  2  1  0
  2  3  2  0
  3  4  1  0
  4  5  2  0
  5  6  1  0
  6  7  2  0
  7  8  1  0
  8  9  1  0
  9 10  1  0
 10 11  1  0
 11 12  1  0
 12 13  1  0
  5 14  1  0
 14 15  2  0
 15 16  1  0
 16 17  1  0
 16 18  1  0
 16 19  1  0
 15  2  1  0
 13  6  1  0
 13  9  1  0
M  END
>  <assay_chembl_id>  (355) 
CHEMBL2162624

>  <assay_description>  (355) 
Displacement of [3H]R1881 from wild type human androgen receptor expressed in COS-1 cells co-transfected with pSG5 after 15 mins by scintillation assay

>  <parent_molecule_chembl_id>  (355) 
CHEMBL2159564

>  <canonical_smiles>  (355) 
Fc1ccc(C2=NOC3CCCC23)cc1C(F)(F)F

>  <standard_type>  (355) 
IC50

>  <standard_relation>  (355) 
=

>  <standard_value>  (355) 
1479.11

>  <standard_units>  (355) 
nM

>  <target_pref_name>  (355) 
Androgen Receptor

>  <target_chembl_id>  (355) 
CHEMBL1871

>  <target_organism>  (355) 
Homo sapiens

>  <pchembl_median>  (355) 
6.0

$$$$
CHEMBL2159563
     RDKit          2D

 21 23  0  0  0  0  0  0  0  0999 V2000
   -8.6640    0.6645    0.0000 O   0  0  0  0  0  0  0  0  0  0  0  0
   -7.9140    1.9635    0.0000 N   0  0  0  0  0  4  0  0  0  0  0  0
   -8.6640    3.2626    0.0000 O   0  0  0  0  0  1  0  0  0  0  0  0
   -6.4140    1.9635    0.0000 C   0  0  0  0  0  0  0  0  0  0  0  0
   -5.6640    3.2626    0.0000 C   0  0  0  0  0  0  0  0  0  0  0  0
   -4.1640    3.2626    0.0000 C   0  0  0  0  0  0  0  0  0  0  0  0
   -3.4140    1.9635    0.0000 C   0  0  0  0  0  0  0  0  0  0  0  0
   -1.9140    1.9635    0.0000 C   0  0  0  0  0  0  0  0  0  0  0  0
   -1.0323    3.1771    0.0000 N   0  0  0  0  0  0  0  0  0  0  0  0
    0.3943    2.7135    0.0000 O   0  0  0  0  0  0  0  0  0  0  0  0
    0.3943    1.2135    0.0000 C   0  0  0  0  0  0  0  0  0  0  0  0
    1.2760    0.0000    0.0000 C   0  0  0  0  0  0  0  0  0  0  0  0
    0.3943   -1.2135    0.0000 C   0  0  0  0  0  0  0  0  0  0  0  0
   -1.0323   -0.7500    0.0000 C   0  0  0  0  0  0  0  0  0  0  0  0
   -1.0323    0.7500    0.0000 C   0  0  0  0  0  0  0  0  0  0  0  0
   -4.1640    0.6645    0.0000 C   0  0  0  0  0  0  0  0  0  0  0  0
   -3.4140   -0.6346    0.0000 C   0  0  0  0  0  0  0  0  0  0  0  0
   -2.6640   -1.9336    0.0000 F   0  0  0  0  0  0  0  0  0  0  0  0
   -4.7130   -1.3846    0.0000 F   0  0  0  0  0  0  0  0  0  0  0  0
   -2.1149    0.1154    0.0000 F   0  0  0  0  0  0  0  0  0  0  0  0
   -5.6640    0.6645    0.0000 C   0  0  0  0  0  0  0  0  0  0  0  0
  1  2  2  0
  2  3  1  0
  2  4  1  0
  4  5  2  0
  5  6  1  0
  6  7  2  0
  7  8  1  0
  8  9  2  0
  9 10  1  0
 10 11  1  0
 11 12  1  0
 12 13  1  0
 13 14  1  0
 14 15  1  0
  7 16  1  0
 16 17  1  0
 17 18  1  0
 17 19  1  0
 17 20  1  0
 16 21  2  0
 21  4  1  0
 15  8  1  0
 15 11  1  0
M  CHG  2   2   1   3  -1
M  END
>  <assay_chembl_id>  (356) 
CHEMBL2162624

>  <assay_description>  (356) 
Displacement of [3H]R1881 from wild type human androgen receptor expressed in COS-1 cells co-transfected with pSG5 after 15 mins by scintillation assay

>  <parent_molecule_chembl_id>  (356) 
CHEMBL2159563

>  <canonical_smiles>  (356) 
O=[N+]([O-])c1ccc(C2=NOC3CCCC23)c(C(F)(F)F)c1

>  <standard_type>  (356) 
IC50

>  <standard_relation>  (356) 
=

>  <standard_value>  (356) 
269.15

>  <standard_units>  (356) 
nM

>  <target_pref_name>  (356) 
Androgen Receptor

>  <target_chembl_id>  (356) 
CHEMBL1871

>  <target_organism>  (356) 
Homo sapiens

>  <pchembl_median>  (356) 
5.78

$$$$
CHEMBL2159562
     RDKit          2D

 21 23  0  0  0  0  0  0  0  0999 V2000
   -8.6640    0.6645    0.0000 O   0  0  0  0  0  0  0  0  0  0  0  0
   -7.9140    1.9635    0.0000 N   0  0  0  0  0  4  0  0  0  0  0  0
   -8.6640    3.2626    0.0000 O   0  0  0  0  0  1  0  0  0  0  0  0
   -6.4140    1.9635    0.0000 C   0  0  0  0  0  0  0  0  0  0  0  0
   -5.6640    3.2626    0.0000 C   0  0  0  0  0  0  0  0  0  0  0  0
   -4.1640    3.2626    0.0000 C   0  0  0  0  0  0  0  0  0  0  0  0
   -3.4140    1.9635    0.0000 C   0  0  0  0  0  0  0  0  0  0  0  0
   -1.9140    1.9635    0.0000 C   0  0  0  0  0  0  0  0  0  0  0  0
   -1.0323    3.1771    0.0000 N   0  0  0  0  0  0  0  0  0  0  0  0
    0.3943    2.7135    0.0000 O   0  0  0  0  0  0  0  0  0  0  0  0
    0.3943    1.2135    0.0000 C   0  0  0  0  0  0  0  0  0  0  0  0
    1.2760    0.0000    0.0000 C   0  0  0  0  0  0  0  0  0  0  0  0
    0.3943   -1.2135    0.0000 C   0  0  0  0  0  0  0  0  0  0  0  0
   -1.0323   -0.7500    0.0000 C   0  0  0  0  0  0  0  0  0  0  0  0
   -1.0323    0.7500    0.0000 C   0  0  0  0  0  0  0  0  0  0  0  0
   -4.1640    0.6645    0.0000 C   0  0  0  0  0  0  0  0  0  0  0  0
   -5.6640    0.6645    0.0000 C   0  0  0  0  0  0  0  0  0  0  0  0
   -6.4140   -0.6346    0.0000 C   0  0  0  0  0  0  0  0  0  0  0  0
   -7.1640   -1.9336    0.0000 F   0  0  0  0  0  0  0  0  0  0  0  0
   -5.1149   -1.3846    0.0000 F   0  0  0  0  0  0  0  0  0  0  0  0
   -7.7130    0.1154    0.0000 F   0  0  0  0  0  0  0  0  0  0  0  0
  1  2  2  0
  2  3  1  0
  2  4  1  0
  4  5  2  0
  5  6  1  0
  6  7  2  0
  7  8  1  0
  8  9  2  0
  9 10  1  0
 10 11  1  0
 11 12  1  6
 12 13  1  0
 13 14  1  0
 15 14  1  6
  7 16  1  0
 16 17  2  0
 17 18  1  0
 18 19  1  0
 18 20  1  0
 18 21  1  0
 17  4  1  0
 15  8  1  0
 15 11  1  0
M  CHG  2   2   1   3  -1
M  END
>  <assay_chembl_id>  (357) 
CHEMBL2162624

>  <assay_description>  (357) 
Displacement of [3H]R1881 from wild type human androgen receptor expressed in COS-1 cells co-transfected with pSG5 after 15 mins by scintillation assay

>  <parent_molecule_chembl_id>  (357) 
CHEMBL2159562

>  <canonical_smiles>  (357) 
O=[N+]([O-])c1ccc(C2=NO[C@@H]3CCC[C@H]23)cc1C(F)(F)F

>  <standard_type>  (357) 
IC50

>  <standard_relation>  (357) 
=

>  <standard_value>  (357) 
302.0

>  <standard_units>  (357) 
nM

>  <target_pref_name>  (357) 
Androgen Receptor

>  <target_chembl_id>  (357) 
CHEMBL1871

>  <target_organism>  (357) 
Homo sapiens

>  <pchembl_median>  (357) 
5.43

$$$$
CHEMBL2159732
     RDKit          2D

 21 23  0  0  0  0  0  0  0  0999 V2000
   -8.6640    0.6645    0.0000 O   0  0  0  0  0  0  0  0  0  0  0  0
   -7.9140    1.9635    0.0000 N   0  0  0  0  0  4  0  0  0  0  0  0
   -8.6640    3.2626    0.0000 O   0  0  0  0  0  1  0  0  0  0  0  0
   -6.4140    1.9635    0.0000 C   0  0  0  0  0  0  0  0  0  0  0  0
   -5.6640    3.2626    0.0000 C   0  0  0  0  0  0  0  0  0  0  0  0
   -4.1640    3.2626    0.0000 C   0  0  0  0  0  0  0  0  0  0  0  0
   -3.4140    1.9635    0.0000 C   0  0  0  0  0  0  0  0  0  0  0  0
   -1.9140    1.9635    0.0000 C   0  0  0  0  0  0  0  0  0  0  0  0
   -1.0323    3.1771    0.0000 N   0  0  0  0  0  0  0  0  0  0  0  0
    0.3943    2.7135    0.0000 O   0  0  0  0  0  0  0  0  0  0  0  0
    0.3943    1.2135    0.0000 C   0  0  0  0  0  0  0  0  0  0  0  0
    1.2760    0.0000    0.0000 C   0  0  0  0  0  0  0  0  0  0  0  0
    0.3943   -1.2135    0.0000 C   0  0  0  0  0  0  0  0  0  0  0  0
   -1.0323   -0.7500    0.0000 C   0  0  0  0  0  0  0  0  0  0  0  0
   -1.0323    0.7500    0.0000 C   0  0  0  0  0  0  0  0  0  0  0  0
   -4.1640    0.6645    0.0000 C   0  0  0  0  0  0  0  0  0  0  0  0
   -5.6640    0.6645    0.0000 C   0  0  0  0  0  0  0  0  0  0  0  0
   -6.4140   -0.6346    0.0000 C   0  0  0  0  0  0  0  0  0  0  0  0
   -7.1640   -1.9336    0.0000 F   0  0  0  0  0  0  0  0  0  0  0  0
   -5.1149   -1.3846    0.0000 F   0  0  0  0  0  0  0  0  0  0  0  0
   -7.7130    0.1154    0.0000 F   0  0  0  0  0  0  0  0  0  0  0  0
  1  2  2  0
  2  3  1  0
  2  4  1  0
  4  5  2  0
  5  6  1  0
  6  7  2  0
  7  8  1  0
  8  9  2  0
  9 10  1  0
 10 11  1  0
 11 12  1  1
 12 13  1  0
 13 14  1  0
 15 14  1  1
  7 16  1  0
 16 17  2  0
 17 18  1  0
 18 19  1  0
 18 20  1  0
 18 21  1  0
 17  4  1  0
 15  8  1  0
 15 11  1  0
M  CHG  2   2   1   3  -1
M  END
>  <assay_chembl_id>  (358) 
CHEMBL2162624

>  <assay_description>  (358) 
Displacement of [3H]R1881 from wild type human androgen receptor expressed in COS-1 cells co-transfected with pSG5 after 15 mins by scintillation assay

>  <parent_molecule_chembl_id>  (358) 
CHEMBL2159732

>  <canonical_smiles>  (358) 
O=[N+]([O-])c1ccc(C2=NO[C@H]3CCC[C@@H]23)cc1C(F)(F)F

>  <standard_type>  (358) 
IC50

>  <standard_relation>  (358) 
=

>  <standard_value>  (358) 
2511.89

>  <standard_units>  (358) 
nM

>  <target_pref_name>  (358) 
Androgen Receptor

>  <target_chembl_id>  (358) 
CHEMBL1871

>  <target_organism>  (358) 
Homo sapiens

>  <pchembl_median>  (358) 
5.71

$$$$
CHEMBL2159731
     RDKit          2D

 20 22  0  0  0  0  0  0  0  0999 V2000
   -9.4140    1.9635    0.0000 N   0  0  0  0  0  0  0  0  0  0  0  0
   -7.9140    1.9635    0.0000 C   0  0  0  0  0  0  0  0  0  0  0  0
   -6.4140    1.9635    0.0000 C   0  0  0  0  0  0  0  0  0  0  0  0
   -5.6640    3.2626    0.0000 C   0  0  0  0  0  0  0  0  0  0  0  0
   -4.1640    3.2626    0.0000 C   0  0  0  0  0  0  0  0  0  0  0  0
   -3.4140    1.9635    0.0000 C   0  0  0  0  0  0  0  0  0  0  0  0
   -1.9140    1.9635    0.0000 C   0  0  0  0  0  0  0  0  0  0  0  0
   -1.0323    3.1771    0.0000 N   0  0  0  0  0  0  0  0  0  0  0  0
    0.3943    2.7135    0.0000 O   0  0  0  0  0  0  0  0  0  0  0  0
    0.3943    1.2135    0.0000 C   0  0  0  0  0  0  0  0  0  0  0  0
    1.2760    0.0000    0.0000 C   0  0  0  0  0  0  0  0  0  0  0  0
    0.3943   -1.2135    0.0000 C   0  0  0  0  0  0  0  0  0  0  0  0
   -1.0323   -0.7500    0.0000 C   0  0  0  0  0  0  0  0  0  0  0  0
   -1.0323    0.7500    0.0000 C   0  0  0  0  0  0  0  0  0  0  0  0
   -4.1640    0.6645    0.0000 C   0  0  0  0  0  0  0  0  0  0  0  0
   -3.4140   -0.6346    0.0000 C   0  0  0  0  0  0  0  0  0  0  0  0
   -2.6640   -1.9336    0.0000 F   0  0  0  0  0  0  0  0  0  0  0  0
   -4.7130   -1.3846    0.0000 F   0  0  0  0  0  0  0  0  0  0  0  0
   -2.1149    0.1154    0.0000 F   0  0  0  0  0  0  0  0  0  0  0  0
   -5.6640    0.6645    0.0000 C   0  0  0  0  0  0  0  0  0  0  0  0
  1  2  3  0
  2  3  1  0
  3  4  2  0
  4  5  1  0
  5  6  2  0
  6  7  1  0
  7  8  2  0
  8  9  1  0
  9 10  1  0
 10 11  1  0
 11 12  1  0
 12 13  1  0
 13 14  1  0
  6 15  1  0
 15 16  1  0
 16 17  1  0
 16 18  1  0
 16 19  1  0
 15 20  2  0
 20  3  1  0
 14  7  1  0
 14 10  1  0
M  END
>  <assay_chembl_id>  (359) 
CHEMBL2162624

>  <assay_description>  (359) 
Displacement of [3H]R1881 from wild type human androgen receptor expressed in COS-1 cells co-transfected with pSG5 after 15 mins by scintillation assay

>  <parent_molecule_chembl_id>  (359) 
CHEMBL2159731

>  <canonical_smiles>  (359) 
N#Cc1ccc(C2=NOC3CCCC23)c(C(F)(F)F)c1

>  <standard_type>  (359) 
IC50

>  <standard_relation>  (359) 
=

>  <standard_value>  (359) 
446.68

>  <standard_units>  (359) 
nM

>  <target_pref_name>  (359) 
Androgen Receptor

>  <target_chembl_id>  (359) 
CHEMBL1871

>  <target_organism>  (359) 
Homo sapiens

>  <pchembl_median>  (359) 
5.04

$$$$
CHEMBL2159730
     RDKit          2D

 20 22  0  0  0  0  0  0  0  0999 V2000
   -9.4140    1.9635    0.0000 N   0  0  0  0  0  0  0  0  0  0  0  0
   -7.9140    1.9635    0.0000 C   0  0  0  0  0  0  0  0  0  0  0  0
   -6.4140    1.9635    0.0000 C   0  0  0  0  0  0  0  0  0  0  0  0
   -5.6640    3.2626    0.0000 C   0  0  0  0  0  0  0  0  0  0  0  0
   -4.1640    3.2626    0.0000 C   0  0  0  0  0  0  0  0  0  0  0  0
   -3.4140    1.9635    0.0000 C   0  0  0  0  0  0  0  0  0  0  0  0
   -1.9140    1.9635    0.0000 C   0  0  0  0  0  0  0  0  0  0  0  0
   -1.0323    3.1771    0.0000 N   0  0  0  0  0  0  0  0  0  0  0  0
    0.3943    2.7135    0.0000 O   0  0  0  0  0  0  0  0  0  0  0  0
    0.3943    1.2135    0.0000 C   0  0  0  0  0  0  0  0  0  0  0  0
    1.2760    0.0000    0.0000 C   0  0  0  0  0  0  0  0  0  0  0  0
    0.3943   -1.2135    0.0000 C   0  0  0  0  0  0  0  0  0  0  0  0
   -1.0323   -0.7500    0.0000 C   0  0  0  0  0  0  0  0  0  0  0  0
   -1.0323    0.7500    0.0000 C   0  0  0  0  0  0  0  0  0  0  0  0
   -4.1640    0.6645    0.0000 C   0  0  0  0  0  0  0  0  0  0  0  0
   -5.6640    0.6645    0.0000 C   0  0  0  0  0  0  0  0  0  0  0  0
   -6.4140   -0.6346    0.0000 C   0  0  0  0  0  0  0  0  0  0  0  0
   -7.1640   -1.9336    0.0000 F   0  0  0  0  0  0  0  0  0  0  0  0
   -5.1149   -1.3846    0.0000 F   0  0  0  0  0  0  0  0  0  0  0  0
   -7.7130    0.1154    0.0000 F   0  0  0  0  0  0  0  0  0  0  0  0
  1  2  3  0
  2  3  1  0
  3  4  2  0
  4  5  1  0
  5  6  2  0
  6  7  1  0
  7  8  2  0
  8  9  1  0
  9 10  1  0
 10 11  1  6
 11 12  1  0
 12 13  1  0
 14 13  1  6
  6 15  1  0
 15 16  2  0
 16 17  1  0
 17 18  1  0
 17 19  1  0
 17 20  1  0
 16  3  1  0
 14  7  1  0
 14 10  1  0
M  END
>  <assay_chembl_id>  (360) 
CHEMBL2162624

>  <assay_description>  (360) 
Displacement of [3H]R1881 from wild type human androgen receptor expressed in COS-1 cells co-transfected with pSG5 after 15 mins by scintillation assay

>  <parent_molecule_chembl_id>  (360) 
CHEMBL2159730

>  <canonical_smiles>  (360) 
N#Cc1ccc(C2=NO[C@@H]3CCC[C@H]23)cc1C(F)(F)F

>  <standard_type>  (360) 
IC50

>  <standard_relation>  (360) 
=

>  <standard_value>  (360) 
223.87

>  <standard_units>  (360) 
nM

>  <target_pref_name>  (360) 
Androgen Receptor

>  <target_chembl_id>  (360) 
CHEMBL1871

>  <target_organism>  (360) 
Homo sapiens

>  <pchembl_median>  (360) 
5.47

$$$$
CHEMBL2159729
     RDKit          2D

 20 22  0  0  0  0  0  0  0  0999 V2000
   -9.4140    1.9635    0.0000 N   0  0  0  0  0  0  0  0  0  0  0  0
   -7.9140    1.9635    0.0000 C   0  0  0  0  0  0  0  0  0  0  0  0
   -6.4140    1.9635    0.0000 C   0  0  0  0  0  0  0  0  0  0  0  0
   -5.6640    3.2626    0.0000 C   0  0  0  0  0  0  0  0  0  0  0  0
   -4.1640    3.2626    0.0000 C   0  0  0  0  0  0  0  0  0  0  0  0
   -3.4140    1.9635    0.0000 C   0  0  0  0  0  0  0  0  0  0  0  0
   -1.9140    1.9635    0.0000 C   0  0  0  0  0  0  0  0  0  0  0  0
   -1.0323    3.1771    0.0000 N   0  0  0  0  0  0  0  0  0  0  0  0
    0.3943    2.7135    0.0000 O   0  0  0  0  0  0  0  0  0  0  0  0
    0.3943    1.2135    0.0000 C   0  0  0  0  0  0  0  0  0  0  0  0
    1.2760    0.0000    0.0000 C   0  0  0  0  0  0  0  0  0  0  0  0
    0.3943   -1.2135    0.0000 C   0  0  0  0  0  0  0  0  0  0  0  0
   -1.0323   -0.7500    0.0000 C   0  0  0  0  0  0  0  0  0  0  0  0
   -1.0323    0.7500    0.0000 C   0  0  0  0  0  0  0  0  0  0  0  0
   -4.1640    0.6645    0.0000 C   0  0  0  0  0  0  0  0  0  0  0  0
   -5.6640    0.6645    0.0000 C   0  0  0  0  0  0  0  0  0  0  0  0
   -6.4140   -0.6346    0.0000 C   0  0  0  0  0  0  0  0  0  0  0  0
   -7.1640   -1.9336    0.0000 F   0  0  0  0  0  0  0  0  0  0  0  0
   -5.1149   -1.3846    0.0000 F   0  0  0  0  0  0  0  0  0  0  0  0
   -7.7130    0.1154    0.0000 F   0  0  0  0  0  0  0  0  0  0  0  0
  1  2  3  0
  2  3  1  0
  3  4  2  0
  4  5  1  0
  5  6  2  0
  6  7  1  0
  7  8  2  0
  8  9  1  0
  9 10  1  0
 10 11  1  1
 11 12  1  0
 12 13  1  0
 14 13  1  1
  6 15  1  0
 15 16  2  0
 16 17  1  0
 17 18  1  0
 17 19  1  0
 17 20  1  0
 16  3  1  0
 14  7  1  0
 14 10  1  0
M  END
>  <assay_chembl_id>  (361) 
CHEMBL2162624

>  <assay_description>  (361) 
Displacement of [3H]R1881 from wild type human androgen receptor expressed in COS-1 cells co-transfected with pSG5 after 15 mins by scintillation assay

>  <parent_molecule_chembl_id>  (361) 
CHEMBL2159729

>  <canonical_smiles>  (361) 
N#Cc1ccc(C2=NO[C@H]3CCC[C@@H]23)cc1C(F)(F)F

>  <standard_type>  (361) 
IC50

>  <standard_relation>  (361) 
=

>  <standard_value>  (361) 
616.6

>  <standard_units>  (361) 
nM

>  <target_pref_name>  (361) 
Androgen Receptor

>  <target_chembl_id>  (361) 
CHEMBL1871

>  <target_organism>  (361) 
Homo sapiens

>  <pchembl_median>  (361) 
5.42

$$$$
CHEMBL2316547
     RDKit          2D

 23 25  0  0  0  0  0  0  0  0999 V2000
    4.5000    0.0000    0.0000 N   0  0  0  0  0  0  0  0  0  0  0  0
    3.0000    0.0000    0.0000 S   0  0  0  0  0  0  0  0  0  0  0  0
    3.0000   -1.5000    0.0000 O   0  0  0  0  0  0  0  0  0  0  0  0
    3.0000    1.5000    0.0000 O   0  0  0  0  0  0  0  0  0  0  0  0
    1.5000    0.0000    0.0000 C   0  0  0  0  0  0  0  0  0  0  0  0
    0.7500   -1.2990    0.0000 C   0  0  0  0  0  0  0  0  0  0  0  0
   -0.7500   -1.2990    0.0000 C   0  0  0  0  0  0  0  0  0  0  0  0
   -1.5000    0.0000    0.0000 C   0  0  0  0  0  0  0  0  0  0  0  0
   -0.7500    1.2990    0.0000 C   0  0  0  0  0  0  0  0  0  0  0  0
   -1.2135    2.7256    0.0000 C   0  0  0  0  0  0  0  0  0  0  0  0
   -0.0000    3.6073    0.0000 C   0  0  0  0  0  0  0  0  0  0  0  0
   -0.0000    5.1073    0.0000 S   0  0  0  0  0  0  0  0  0  0  0  0
    1.2990    5.8573    0.0000 C   0  0  0  0  0  0  0  0  0  0  0  0
    1.2990    7.3573    0.0000 C   0  0  0  0  0  0  0  0  0  0  0  0
    2.5981    8.1073    0.0000 O   0  0  0  0  0  0  0  0  0  0  0  0
    2.5981    9.6073    0.0000 C   0  0  0  0  0  0  0  0  0  0  0  0
    3.8971   10.3573    0.0000 C   0  0  0  0  0  0  0  0  0  0  0  0
    3.8971   11.8573    0.0000 C   0  0  0  0  0  0  0  0  0  0  0  0
    2.5981   12.6073    0.0000 C   0  0  0  0  0  0  0  0  0  0  0  0
    1.2990   11.8573    0.0000 C   0  0  0  0  0  0  0  0  0  0  0  0
    1.2990   10.3573    0.0000 C   0  0  0  0  0  0  0  0  0  0  0  0
    1.2135    2.7256    0.0000 N   0  0  0  0  0  0  0  0  0  0  0  0
    0.7500    1.2990    0.0000 C   0  0  0  0  0  0  0  0  0  0  0  0
  1  2  1  0
  2  3  2  0
  2  4  2  0
  2  5  1  0
  5  6  2  0
  6  7  1  0
  7  8  2  0
  8  9  1  0
  9 10  1  0
 10 11  2  0
 11 12  1  0
 12 13  1  0
 13 14  1  0
 14 15  1  0
 15 16  1  0
 16 17  2  0
 17 18  1  0
 18 19  2  0
 19 20  1  0
 20 21  2  0
 11 22  1  0
 22 23  1  0
 23  5  1  0
 23  9  2  0
 21 16  1  0
M  END
>  <assay_chembl_id>  (362) 
CHEMBL2318840

>  <assay_description>  (362) 
Inhibition of BF3 site of androgen receptor in human LNCAP cells expressing ARR2PB assessed as reduction in PSA level after 3 days

>  <parent_molecule_chembl_id>  (362) 
CHEMBL2316547

>  <canonical_smiles>  (362) 
NS(=O)(=O)c1cccc2cc(SCCOc3ccccc3)[nH]c12

>  <standard_type>  (362) 
IC50

>  <standard_relation>  (362) 
=

>  <standard_value>  (362) 
1600.0

>  <standard_units>  (362) 
nM

>  <target_pref_name>  (362) 
Androgen Receptor

>  <target_chembl_id>  (362) 
CHEMBL1871

>  <target_organism>  (362) 
Homo sapiens

>  <pchembl_median>  (362) 
6.26

$$$$
CHEMBL2316542
     RDKit          2D

 21 23  0  0  0  0  0  0  0  0999 V2000
    0.0000   -9.6073    0.0000 C   0  0  0  0  0  0  0  0  0  0  0  0
   -1.2990  -10.3573    0.0000 C   0  0  0  0  0  0  0  0  0  0  0  0
   -1.2990  -11.8573    0.0000 C   0  0  0  0  0  0  0  0  0  0  0  0
   -2.5981  -12.6073    0.0000 C   0  0  0  0  0  0  0  0  0  0  0  0
   -3.8971  -11.8573    0.0000 C   0  0  0  0  0  0  0  0  0  0  0  0
   -3.8971  -10.3573    0.0000 C   0  0  0  0  0  0  0  0  0  0  0  0
   -5.1962   -9.6073    0.0000 C   0  0  0  0  0  0  0  0  0  0  0  0
   -2.5981   -9.6073    0.0000 C   0  0  0  0  0  0  0  0  0  0  0  0
   -2.5981   -8.1073    0.0000 O   0  0  0  0  0  0  0  0  0  0  0  0
   -1.2990   -7.3573    0.0000 C   0  0  0  0  0  0  0  0  0  0  0  0
   -1.2990   -5.8573    0.0000 C   0  0  0  0  0  0  0  0  0  0  0  0
   -0.0000   -5.1073    0.0000 S   0  0  0  0  0  0  0  0  0  0  0  0
   -0.0000   -3.6073    0.0000 C   0  0  0  0  0  0  0  0  0  0  0  0
    1.2135   -2.7256    0.0000 N   0  0  0  0  0  0  0  0  0  0  0  0
    0.7500   -1.2990    0.0000 C   0  0  0  0  0  0  0  0  0  0  0  0
    1.5000    0.0000    0.0000 C   0  0  0  0  0  0  0  0  0  0  0  0
    0.7500    1.2990    0.0000 C   0  0  0  0  0  0  0  0  0  0  0  0
   -0.7500    1.2990    0.0000 C   0  0  0  0  0  0  0  0  0  0  0  0
   -1.5000    0.0000    0.0000 C   0  0  0  0  0  0  0  0  0  0  0  0
   -0.7500   -1.2990    0.0000 C   0  0  0  0  0  0  0  0  0  0  0  0
   -1.2135   -2.7256    0.0000 N   0  0  0  0  0  0  0  0  0  0  0  0
  1  2  1  0
  2  3  2  0
  3  4  1  0
  4  5  2  0
  5  6  1  0
  6  7  1  0
  6  8  2  0
  8  9  1  0
  9 10  1  0
 10 11  1  0
 11 12  1  0
 12 13  1  0
 13 14  2  0
 14 15  1  0
 15 16  2  0
 16 17  1  0
 17 18  2  0
 18 19  1  0
 19 20  2  0
 20 21  1  0
  8  2  1  0
 21 13  1  0
 20 15  1  0
M  END
>  <assay_chembl_id>  (363) 
CHEMBL2318840

>  <assay_description>  (363) 
Inhibition of BF3 site of androgen receptor in human LNCAP cells expressing ARR2PB assessed as reduction in PSA level after 3 days

>  <parent_molecule_chembl_id>  (363) 
CHEMBL2316542

>  <canonical_smiles>  (363) 
Cc1cccc(C)c1OCCSc1nc2ccccc2[nH]1

>  <standard_type>  (363) 
IC50

>  <standard_relation>  (363) 
=

>  <standard_value>  (363) 
1900.0

>  <standard_units>  (363) 
nM

>  <target_pref_name>  (363) 
Androgen Receptor

>  <target_chembl_id>  (363) 
CHEMBL1871

>  <target_organism>  (363) 
Homo sapiens

>  <pchembl_median>  (363) 
4.52

$$$$
CHEMBL2316540
     RDKit          2D

 20 22  0  0  0  0  0  0  0  0999 V2000
   -0.0000  -12.6073    0.0000 C   0  0  0  0  0  0  0  0  0  0  0  0
   -1.2990  -11.8573    0.0000 C   0  0  0  0  0  0  0  0  0  0  0  0
   -2.5981  -12.6073    0.0000 C   0  0  0  0  0  0  0  0  0  0  0  0
   -3.8971  -11.8573    0.0000 C   0  0  0  0  0  0  0  0  0  0  0  0
   -3.8971  -10.3573    0.0000 C   0  0  0  0  0  0  0  0  0  0  0  0
   -2.5981   -9.6073    0.0000 C   0  0  0  0  0  0  0  0  0  0  0  0
   -2.5981   -8.1073    0.0000 O   0  0  0  0  0  0  0  0  0  0  0  0
   -1.2990   -7.3573    0.0000 C   0  0  0  0  0  0  0  0  0  0  0  0
   -1.2990   -5.8573    0.0000 C   0  0  0  0  0  0  0  0  0  0  0  0
   -0.0000   -5.1073    0.0000 S   0  0  0  0  0  0  0  0  0  0  0  0
   -0.0000   -3.6073    0.0000 C   0  0  0  0  0  0  0  0  0  0  0  0
    1.2135   -2.7256    0.0000 N   0  0  0  0  0  0  0  0  0  0  0  0
    0.7500   -1.2990    0.0000 C   0  0  0  0  0  0  0  0  0  0  0  0
    1.5000    0.0000    0.0000 C   0  0  0  0  0  0  0  0  0  0  0  0
    0.7500    1.2990    0.0000 C   0  0  0  0  0  0  0  0  0  0  0  0
   -0.7500    1.2990    0.0000 C   0  0  0  0  0  0  0  0  0  0  0  0
   -1.5000    0.0000    0.0000 C   0  0  0  0  0  0  0  0  0  0  0  0
   -0.7500   -1.2990    0.0000 C   0  0  0  0  0  0  0  0  0  0  0  0
   -1.2135   -2.7256    0.0000 N   0  0  0  0  0  0  0  0  0  0  0  0
   -1.2990  -10.3573    0.0000 C   0  0  0  0  0  0  0  0  0  0  0  0
  1  2  1  0
  2  3  2  0
  3  4  1  0
  4  5  2  0
  5  6  1  0
  6  7  1  0
  7  8  1  0
  8  9  1  0
  9 10  1  0
 10 11  1  0
 11 12  2  0
 12 13  1  0
 13 14  2  0
 14 15  1  0
 15 16  2  0
 16 17  1  0
 17 18  2  0
 18 19  1  0
  6 20  2  0
 20  2  1  0
 19 11  1  0
 18 13  1  0
M  END
>  <assay_chembl_id>  (364) 
CHEMBL2318840

>  <assay_description>  (364) 
Inhibition of BF3 site of androgen receptor in human LNCAP cells expressing ARR2PB assessed as reduction in PSA level after 3 days

>  <parent_molecule_chembl_id>  (364) 
CHEMBL2316540

>  <canonical_smiles>  (364) 
Cc1cccc(OCCSc2nc3ccccc3[nH]2)c1

>  <standard_type>  (364) 
IC50

>  <standard_relation>  (364) 
=

>  <standard_value>  (364) 
3300.0

>  <standard_units>  (364) 
nM

>  <target_pref_name>  (364) 
Androgen Receptor

>  <target_chembl_id>  (364) 
CHEMBL1871

>  <target_organism>  (364) 
Homo sapiens

>  <pchembl_median>  (364) 
8.0

$$$$
CHEMBL1563710
     RDKit          2D

 19 21  0  0  0  0  0  0  0  0999 V2000
   -2.5981  -12.6073    0.0000 C   0  0  0  0  0  0  0  0  0  0  0  0
   -3.8971  -11.8573    0.0000 C   0  0  0  0  0  0  0  0  0  0  0  0
   -3.8971  -10.3573    0.0000 C   0  0  0  0  0  0  0  0  0  0  0  0
   -2.5981   -9.6073    0.0000 C   0  0  0  0  0  0  0  0  0  0  0  0
   -2.5981   -8.1073    0.0000 O   0  0  0  0  0  0  0  0  0  0  0  0
   -1.2990   -7.3573    0.0000 C   0  0  0  0  0  0  0  0  0  0  0  0
   -1.2990   -5.8573    0.0000 C   0  0  0  0  0  0  0  0  0  0  0  0
   -0.0000   -5.1073    0.0000 S   0  0  0  0  0  0  0  0  0  0  0  0
   -0.0000   -3.6073    0.0000 C   0  0  0  0  0  0  0  0  0  0  0  0
    1.2135   -2.7256    0.0000 N   0  0  0  0  0  0  0  0  0  0  0  0
    0.7500   -1.2990    0.0000 C   0  0  0  0  0  0  0  0  0  0  0  0
    1.5000    0.0000    0.0000 C   0  0  0  0  0  0  0  0  0  0  0  0
    0.7500    1.2990    0.0000 C   0  0  0  0  0  0  0  0  0  0  0  0
   -0.7500    1.2990    0.0000 C   0  0  0  0  0  0  0  0  0  0  0  0
   -1.5000    0.0000    0.0000 C   0  0  0  0  0  0  0  0  0  0  0  0
   -0.7500   -1.2990    0.0000 C   0  0  0  0  0  0  0  0  0  0  0  0
   -1.2135   -2.7256    0.0000 N   0  0  0  0  0  0  0  0  0  0  0  0
   -1.2990  -10.3573    0.0000 C   0  0  0  0  0  0  0  0  0  0  0  0
   -1.2990  -11.8573    0.0000 C   0  0  0  0  0  0  0  0  0  0  0  0
  1  2  2  0
  2  3  1  0
  3  4  2  0
  4  5  1  0
  5  6  1  0
  6  7  1  0
  7  8  1  0
  8  9  1  0
  9 10  2  0
 10 11  1  0
 11 12  2  0
 12 13  1  0
 13 14  2  0
 14 15  1  0
 15 16  2  0
 16 17  1  0
  4 18  1  0
 18 19  2  0
 19  1  1  0
 17  9  1  0
 16 11  1  0
M  END
>  <assay_chembl_id>  (365) 
CHEMBL2318840

>  <assay_description>  (365) 
Inhibition of BF3 site of androgen receptor in human LNCAP cells expressing ARR2PB assessed as reduction in PSA level after 3 days

>  <parent_molecule_chembl_id>  (365) 
CHEMBL1563710

>  <canonical_smiles>  (365) 
c1ccc(OCCSc2nc3ccccc3[nH]2)cc1

>  <standard_type>  (365) 
IC50

>  <standard_relation>  (365) 
=

>  <standard_value>  (365) 
4300.0

>  <standard_units>  (365) 
nM

>  <target_pref_name>  (365) 
Androgen Receptor

>  <target_chembl_id>  (365) 
CHEMBL1871

>  <target_organism>  (365) 
Homo sapiens

>  <pchembl_median>  (365) 
7.66

$$$$
CHEMBL2316546
     RDKit          2D

 19 21  0  0  0  0  0  0  0  0999 V2000
   -2.5981  -12.6073    0.0000 C   0  0  0  0  0  0  0  0  0  0  0  0
   -3.8971  -11.8573    0.0000 C   0  0  0  0  0  0  0  0  0  0  0  0
   -3.8971  -10.3573    0.0000 C   0  0  0  0  0  0  0  0  0  0  0  0
   -2.5981   -9.6073    0.0000 C   0  0  0  0  0  0  0  0  0  0  0  0
   -2.5981   -8.1073    0.0000 O   0  0  0  0  0  0  0  0  0  0  0  0
   -1.2990   -7.3573    0.0000 C   0  0  0  0  0  0  0  0  0  0  0  0
   -1.2990   -5.8573    0.0000 C   0  0  0  0  0  0  0  0  0  0  0  0
   -0.0000   -5.1073    0.0000 S   0  0  0  0  0  0  0  0  0  0  0  0
   -0.0000   -3.6073    0.0000 C   0  0  0  0  0  0  0  0  0  0  0  0
    1.2135   -2.7256    0.0000 C   0  0  0  0  0  0  0  0  0  0  0  0
    0.7500   -1.2990    0.0000 C   0  0  0  0  0  0  0  0  0  0  0  0
    1.5000    0.0000    0.0000 C   0  0  0  0  0  0  0  0  0  0  0  0
    0.7500    1.2990    0.0000 C   0  0  0  0  0  0  0  0  0  0  0  0
   -0.7500    1.2990    0.0000 C   0  0  0  0  0  0  0  0  0  0  0  0
   -1.5000    0.0000    0.0000 C   0  0  0  0  0  0  0  0  0  0  0  0
   -0.7500   -1.2990    0.0000 C   0  0  0  0  0  0  0  0  0  0  0  0
   -1.2135   -2.7256    0.0000 N   0  0  0  0  0  0  0  0  0  0  0  0
   -1.2990  -10.3573    0.0000 C   0  0  0  0  0  0  0  0  0  0  0  0
   -1.2990  -11.8573    0.0000 C   0  0  0  0  0  0  0  0  0  0  0  0
  1  2  2  0
  2  3  1  0
  3  4  2  0
  4  5  1  0
  5  6  1  0
  6  7  1  0
  7  8  1  0
  8  9  1  0
  9 10  2  0
 10 11  1  0
 11 12  2  0
 12 13  1  0
 13 14  2  0
 14 15  1  0
 15 16  2  0
 16 17  1  0
  4 18  1  0
 18 19  2  0
 19  1  1  0
 17  9  1  0
 16 11  1  0
M  END
>  <assay_chembl_id>  (366) 
CHEMBL2318841

>  <assay_description>  (366) 
Inhibition of BF3 site of androgen receptor in human LNCAP cells expressing ARR2PB after 3 days by eGFP transcriptional assay

>  <parent_molecule_chembl_id>  (366) 
CHEMBL2316546

>  <canonical_smiles>  (366) 
c1ccc(OCCSc2cc3ccccc3[nH]2)cc1

>  <standard_type>  (366) 
IC50

>  <standard_relation>  (366) 
=

>  <standard_value>  (366) 
5400.0

>  <standard_units>  (366) 
nM

>  <target_pref_name>  (366) 
Androgen Receptor

>  <target_chembl_id>  (366) 
CHEMBL1871

>  <target_organism>  (366) 
Homo sapiens

>  <pchembl_median>  (366) 
7.47

$$$$
CHEMBL2316545
     RDKit          2D

 23 25  0  0  0  0  0  0  0  0999 V2000
   -2.5981  -15.6073    0.0000 N   0  0  0  0  0  0  0  0  0  0  0  0
   -2.5981  -14.1073    0.0000 S   0  0  0  0  0  0  0  0  0  0  0  0
   -4.0981  -14.1073    0.0000 O   0  0  0  0  0  0  0  0  0  0  0  0
   -1.0981  -14.1073    0.0000 O   0  0  0  0  0  0  0  0  0  0  0  0
   -2.5981  -12.6073    0.0000 C   0  0  0  0  0  0  0  0  0  0  0  0
   -3.8971  -11.8573    0.0000 C   0  0  0  0  0  0  0  0  0  0  0  0
   -3.8971  -10.3573    0.0000 C   0  0  0  0  0  0  0  0  0  0  0  0
   -2.5981   -9.6073    0.0000 C   0  0  0  0  0  0  0  0  0  0  0  0
   -2.5981   -8.1073    0.0000 O   0  0  0  0  0  0  0  0  0  0  0  0
   -1.2990   -7.3573    0.0000 C   0  0  0  0  0  0  0  0  0  0  0  0
   -1.2990   -5.8573    0.0000 C   0  0  0  0  0  0  0  0  0  0  0  0
   -0.0000   -5.1073    0.0000 S   0  0  0  0  0  0  0  0  0  0  0  0
   -0.0000   -3.6073    0.0000 C   0  0  0  0  0  0  0  0  0  0  0  0
    1.2135   -2.7256    0.0000 N   0  0  0  0  0  0  0  0  0  0  0  0
    0.7500   -1.2990    0.0000 C   0  0  0  0  0  0  0  0  0  0  0  0
    1.5000    0.0000    0.0000 C   0  0  0  0  0  0  0  0  0  0  0  0
    0.7500    1.2990    0.0000 C   0  0  0  0  0  0  0  0  0  0  0  0
   -0.7500    1.2990    0.0000 C   0  0  0  0  0  0  0  0  0  0  0  0
   -1.5000    0.0000    0.0000 C   0  0  0  0  0  0  0  0  0  0  0  0
   -0.7500   -1.2990    0.0000 C   0  0  0  0  0  0  0  0  0  0  0  0
   -1.2135   -2.7256    0.0000 N   0  0  0  0  0  0  0  0  0  0  0  0
   -1.2990  -10.3573    0.0000 C   0  0  0  0  0  0  0  0  0  0  0  0
   -1.2990  -11.8573    0.0000 C   0  0  0  0  0  0  0  0  0  0  0  0
  1  2  1  0
  2  3  2  0
  2  4  2  0
  2  5  1  0
  5  6  2  0
  6  7  1  0
  7  8  2  0
  8  9  1  0
  9 10  1  0
 10 11  1  0
 11 12  1  0
 12 13  1  0
 13 14  2  0
 14 15  1  0
 15 16  2  0
 16 17  1  0
 17 18  2  0
 18 19  1  0
 19 20  2  0
 20 21  1  0
  8 22  1  0
 22 23  2  0
 23  5  1  0
 21 13  1  0
 20 15  1  0
M  END
>  <assay_chembl_id>  (367) 
CHEMBL2318841

>  <assay_description>  (367) 
Inhibition of BF3 site of androgen receptor in human LNCAP cells expressing ARR2PB after 3 days by eGFP transcriptional assay

>  <parent_molecule_chembl_id>  (367) 
CHEMBL2316545

>  <canonical_smiles>  (367) 
NS(=O)(=O)c1ccc(OCCSc2nc3ccccc3[nH]2)cc1

>  <standard_type>  (367) 
IC50

>  <standard_relation>  (367) 
=

>  <standard_value>  (367) 
62000.0

>  <standard_units>  (367) 
nM

>  <target_pref_name>  (367) 
Androgen Receptor

>  <target_chembl_id>  (367) 
CHEMBL1871

>  <target_organism>  (367) 
Homo sapiens

>  <pchembl_median>  (367) 
7.22

$$$$
CHEMBL2316544
     RDKit          2D

 20 22  0  0  0  0  0  0  0  0999 V2000
   -2.5981  -14.1073    0.0000 Cl  0  0  0  0  0  0  0  0  0  0  0  0
   -2.5981  -12.6073    0.0000 C   0  0  0  0  0  0  0  0  0  0  0  0
   -3.8971  -11.8573    0.0000 C   0  0  0  0  0  0  0  0  0  0  0  0
   -3.8971  -10.3573    0.0000 C   0  0  0  0  0  0  0  0  0  0  0  0
   -2.5981   -9.6073    0.0000 C   0  0  0  0  0  0  0  0  0  0  0  0
   -2.5981   -8.1073    0.0000 O   0  0  0  0  0  0  0  0  0  0  0  0
   -1.2990   -7.3573    0.0000 C   0  0  0  0  0  0  0  0  0  0  0  0
   -1.2990   -5.8573    0.0000 C   0  0  0  0  0  0  0  0  0  0  0  0
   -0.0000   -5.1073    0.0000 S   0  0  0  0  0  0  0  0  0  0  0  0
   -0.0000   -3.6073    0.0000 C   0  0  0  0  0  0  0  0  0  0  0  0
    1.2135   -2.7256    0.0000 N   0  0  0  0  0  0  0  0  0  0  0  0
    0.7500   -1.2990    0.0000 C   0  0  0  0  0  0  0  0  0  0  0  0
    1.5000    0.0000    0.0000 C   0  0  0  0  0  0  0  0  0  0  0  0
    0.7500    1.2990    0.0000 C   0  0  0  0  0  0  0  0  0  0  0  0
   -0.7500    1.2990    0.0000 C   0  0  0  0  0  0  0  0  0  0  0  0
   -1.5000    0.0000    0.0000 C   0  0  0  0  0  0  0  0  0  0  0  0
   -0.7500   -1.2990    0.0000 C   0  0  0  0  0  0  0  0  0  0  0  0
   -1.2135   -2.7256    0.0000 N   0  0  0  0  0  0  0  0  0  0  0  0
   -1.2990  -10.3573    0.0000 C   0  0  0  0  0  0  0  0  0  0  0  0
   -1.2990  -11.8573    0.0000 C   0  0  0  0  0  0  0  0  0  0  0  0
  1  2  1  0
  2  3  2  0
  3  4  1  0
  4  5  2  0
  5  6  1  0
  6  7  1  0
  7  8  1  0
  8  9  1  0
  9 10  1  0
 10 11  2  0
 11 12  1  0
 12 13  2  0
 13 14  1  0
 14 15  2  0
 15 16  1  0
 16 17  2  0
 17 18  1  0
  5 19  1  0
 19 20  2  0
 20  2  1  0
 18 10  1  0
 17 12  1  0
M  END
>  <assay_chembl_id>  (368) 
CHEMBL2318841

>  <assay_description>  (368) 
Inhibition of BF3 site of androgen receptor in human LNCAP cells expressing ARR2PB after 3 days by eGFP transcriptional assay

>  <parent_molecule_chembl_id>  (368) 
CHEMBL2316544

>  <canonical_smiles>  (368) 
Clc1ccc(OCCSc2nc3ccccc3[nH]2)cc1

>  <standard_type>  (368) 
IC50

>  <standard_relation>  (368) 
=

>  <standard_value>  (368) 
4000.0

>  <standard_units>  (368) 
nM

>  <target_pref_name>  (368) 
Androgen Receptor

>  <target_chembl_id>  (368) 
CHEMBL1871

>  <target_organism>  (368) 
Homo sapiens

>  <pchembl_median>  (368) 
7.64

$$$$
CHEMBL2316543
     RDKit          2D

 20 22  0  0  0  0  0  0  0  0999 V2000
   -0.0000  -12.6073    0.0000 Cl  0  0  0  0  0  0  0  0  0  0  0  0
   -1.2990  -11.8573    0.0000 C   0  0  0  0  0  0  0  0  0  0  0  0
   -2.5981  -12.6073    0.0000 C   0  0  0  0  0  0  0  0  0  0  0  0
   -3.8971  -11.8573    0.0000 C   0  0  0  0  0  0  0  0  0  0  0  0
   -3.8971  -10.3573    0.0000 C   0  0  0  0  0  0  0  0  0  0  0  0
   -2.5981   -9.6073    0.0000 C   0  0  0  0  0  0  0  0  0  0  0  0
   -2.5981   -8.1073    0.0000 O   0  0  0  0  0  0  0  0  0  0  0  0
   -1.2990   -7.3573    0.0000 C   0  0  0  0  0  0  0  0  0  0  0  0
   -1.2990   -5.8573    0.0000 C   0  0  0  0  0  0  0  0  0  0  0  0
   -0.0000   -5.1073    0.0000 S   0  0  0  0  0  0  0  0  0  0  0  0
   -0.0000   -3.6073    0.0000 C   0  0  0  0  0  0  0  0  0  0  0  0
    1.2135   -2.7256    0.0000 N   0  0  0  0  0  0  0  0  0  0  0  0
    0.7500   -1.2990    0.0000 C   0  0  0  0  0  0  0  0  0  0  0  0
    1.5000    0.0000    0.0000 C   0  0  0  0  0  0  0  0  0  0  0  0
    0.7500    1.2990    0.0000 C   0  0  0  0  0  0  0  0  0  0  0  0
   -0.7500    1.2990    0.0000 C   0  0  0  0  0  0  0  0  0  0  0  0
   -1.5000    0.0000    0.0000 C   0  0  0  0  0  0  0  0  0  0  0  0
   -0.7500   -1.2990    0.0000 C   0  0  0  0  0  0  0  0  0  0  0  0
   -1.2135   -2.7256    0.0000 N   0  0  0  0  0  0  0  0  0  0  0  0
   -1.2990  -10.3573    0.0000 C   0  0  0  0  0  0  0  0  0  0  0  0
  1  2  1  0
  2  3  2  0
  3  4  1  0
  4  5  2  0
  5  6  1  0
  6  7  1  0
  7  8  1  0
  8  9  1  0
  9 10  1  0
 10 11  1  0
 11 12  2  0
 12 13  1  0
 13 14  2  0
 14 15  1  0
 15 16  2  0
 16 17  1  0
 17 18  2  0
 18 19  1  0
  6 20  2  0
 20  2  1  0
 19 11  1  0
 18 13  1  0
M  END
>  <assay_chembl_id>  (369) 
CHEMBL2318841

>  <assay_description>  (369) 
Inhibition of BF3 site of androgen receptor in human LNCAP cells expressing ARR2PB after 3 days by eGFP transcriptional assay

>  <parent_molecule_chembl_id>  (369) 
CHEMBL2316543

>  <canonical_smiles>  (369) 
Clc1cccc(OCCSc2nc3ccccc3[nH]2)c1

>  <standard_type>  (369) 
IC50

>  <standard_relation>  (369) 
=

>  <standard_value>  (369) 
5000.0

>  <standard_units>  (369) 
nM

>  <target_pref_name>  (369) 
Androgen Receptor

>  <target_chembl_id>  (369) 
CHEMBL1871

>  <target_organism>  (369) 
Homo sapiens

>  <pchembl_median>  (369) 
7.47

$$$$
CHEMBL2316541
     RDKit          2D

 20 22  0  0  0  0  0  0  0  0999 V2000
   -2.5981  -14.1073    0.0000 C   0  0  0  0  0  0  0  0  0  0  0  0
   -2.5981  -12.6073    0.0000 C   0  0  0  0  0  0  0  0  0  0  0  0
   -3.8971  -11.8573    0.0000 C   0  0  0  0  0  0  0  0  0  0  0  0
   -3.8971  -10.3573    0.0000 C   0  0  0  0  0  0  0  0  0  0  0  0
   -2.5981   -9.6073    0.0000 C   0  0  0  0  0  0  0  0  0  0  0  0
   -2.5981   -8.1073    0.0000 O   0  0  0  0  0  0  0  0  0  0  0  0
   -1.2990   -7.3573    0.0000 C   0  0  0  0  0  0  0  0  0  0  0  0
   -1.2990   -5.8573    0.0000 C   0  0  0  0  0  0  0  0  0  0  0  0
   -0.0000   -5.1073    0.0000 S   0  0  0  0  0  0  0  0  0  0  0  0
   -0.0000   -3.6073    0.0000 C   0  0  0  0  0  0  0  0  0  0  0  0
    1.2135   -2.7256    0.0000 N   0  0  0  0  0  0  0  0  0  0  0  0
    0.7500   -1.2990    0.0000 C   0  0  0  0  0  0  0  0  0  0  0  0
    1.5000    0.0000    0.0000 C   0  0  0  0  0  0  0  0  0  0  0  0
    0.7500    1.2990    0.0000 C   0  0  0  0  0  0  0  0  0  0  0  0
   -0.7500    1.2990    0.0000 C   0  0  0  0  0  0  0  0  0  0  0  0
   -1.5000    0.0000    0.0000 C   0  0  0  0  0  0  0  0  0  0  0  0
   -0.7500   -1.2990    0.0000 C   0  0  0  0  0  0  0  0  0  0  0  0
   -1.2135   -2.7256    0.0000 N   0  0  0  0  0  0  0  0  0  0  0  0
   -1.2990  -10.3573    0.0000 C   0  0  0  0  0  0  0  0  0  0  0  0
   -1.2990  -11.8573    0.0000 C   0  0  0  0  0  0  0  0  0  0  0  0
  1  2  1  0
  2  3  2  0
  3  4  1  0
  4  5  2  0
  5  6  1  0
  6  7  1  0
  7  8  1  0
  8  9  1  0
  9 10  1  0
 10 11  2  0
 11 12  1  0
 12 13  2  0
 13 14  1  0
 14 15  2  0
 15 16  1  0
 16 17  2  0
 17 18  1  0
  5 19  1  0
 19 20  2  0
 20  2  1  0
 18 10  1  0
 17 12  1  0
M  END
>  <assay_chembl_id>  (370) 
CHEMBL2318841

>  <assay_description>  (370) 
Inhibition of BF3 site of androgen receptor in human LNCAP cells expressing ARR2PB after 3 days by eGFP transcriptional assay

>  <parent_molecule_chembl_id>  (370) 
CHEMBL2316541

>  <canonical_smiles>  (370) 
Cc1ccc(OCCSc2nc3ccccc3[nH]2)cc1

>  <standard_type>  (370) 
IC50

>  <standard_relation>  (370) 
=

>  <standard_value>  (370) 
7000.0

>  <standard_units>  (370) 
nM

>  <target_pref_name>  (370) 
Androgen Receptor

>  <target_chembl_id>  (370) 
CHEMBL1871

>  <target_organism>  (370) 
Homo sapiens

>  <pchembl_median>  (370) 
7.22

$$$$
CHEMBL2316539
     RDKit          2D

 20 22  0  0  0  0  0  0  0  0999 V2000
    0.0000   -9.6073    0.0000 C   0  0  0  0  0  0  0  0  0  0  0  0
   -1.2990  -10.3573    0.0000 C   0  0  0  0  0  0  0  0  0  0  0  0
   -1.2990  -11.8573    0.0000 C   0  0  0  0  0  0  0  0  0  0  0  0
   -2.5981  -12.6073    0.0000 C   0  0  0  0  0  0  0  0  0  0  0  0
   -3.8971  -11.8573    0.0000 C   0  0  0  0  0  0  0  0  0  0  0  0
   -3.8971  -10.3573    0.0000 C   0  0  0  0  0  0  0  0  0  0  0  0
   -2.5981   -9.6073    0.0000 C   0  0  0  0  0  0  0  0  0  0  0  0
   -2.5981   -8.1073    0.0000 O   0  0  0  0  0  0  0  0  0  0  0  0
   -1.2990   -7.3573    0.0000 C   0  0  0  0  0  0  0  0  0  0  0  0
   -1.2990   -5.8573    0.0000 C   0  0  0  0  0  0  0  0  0  0  0  0
   -0.0000   -5.1073    0.0000 S   0  0  0  0  0  0  0  0  0  0  0  0
   -0.0000   -3.6073    0.0000 C   0  0  0  0  0  0  0  0  0  0  0  0
    1.2135   -2.7256    0.0000 N   0  0  0  0  0  0  0  0  0  0  0  0
    0.7500   -1.2990    0.0000 C   0  0  0  0  0  0  0  0  0  0  0  0
    1.5000    0.0000    0.0000 C   0  0  0  0  0  0  0  0  0  0  0  0
    0.7500    1.2990    0.0000 C   0  0  0  0  0  0  0  0  0  0  0  0
   -0.7500    1.2990    0.0000 C   0  0  0  0  0  0  0  0  0  0  0  0
   -1.5000    0.0000    0.0000 C   0  0  0  0  0  0  0  0  0  0  0  0
   -0.7500   -1.2990    0.0000 C   0  0  0  0  0  0  0  0  0  0  0  0
   -1.2135   -2.7256    0.0000 N   0  0  0  0  0  0  0  0  0  0  0  0
  1  2  1  0
  2  3  2  0
  3  4  1  0
  4  5  2  0
  5  6  1  0
  6  7  2  0
  7  8  1  0
  8  9  1  0
  9 10  1  0
 10 11  1  0
 11 12  1  0
 12 13  2  0
 13 14  1  0
 14 15  2  0
 15 16  1  0
 16 17  2  0
 17 18  1  0
 18 19  2  0
 19 20  1  0
  7  2  1  0
 20 12  1  0
 19 14  1  0
M  END
>  <assay_chembl_id>  (371) 
CHEMBL2318841

>  <assay_description>  (371) 
Inhibition of BF3 site of androgen receptor in human LNCAP cells expressing ARR2PB after 3 days by eGFP transcriptional assay

>  <parent_molecule_chembl_id>  (371) 
CHEMBL2316539

>  <canonical_smiles>  (371) 
Cc1ccccc1OCCSc1nc2ccccc2[nH]1

>  <standard_type>  (371) 
IC50

>  <standard_relation>  (371) 
=

>  <standard_value>  (371) 
19000.0

>  <standard_units>  (371) 
nM

>  <target_pref_name>  (371) 
Androgen Receptor

>  <target_chembl_id>  (371) 
CHEMBL1871

>  <target_organism>  (371) 
Homo sapiens

>  <pchembl_median>  (371) 
8.22

$$$$
CHEMBL2316538
     RDKit          2D

 18 20  0  0  0  0  0  0  0  0999 V2000
   -5.1962   -9.6073    0.0000 C   0  0  0  0  0  0  0  0  0  0  0  0
   -5.1962   -8.1073    0.0000 C   0  0  0  0  0  0  0  0  0  0  0  0
   -3.8971   -7.3573    0.0000 C   0  0  0  0  0  0  0  0  0  0  0  0
   -2.5981   -8.1073    0.0000 C   0  0  0  0  0  0  0  0  0  0  0  0
   -1.2990   -7.3573    0.0000 C   0  0  0  0  0  0  0  0  0  0  0  0
   -1.2990   -5.8573    0.0000 C   0  0  0  0  0  0  0  0  0  0  0  0
   -0.0000   -5.1073    0.0000 S   0  0  0  0  0  0  0  0  0  0  0  0
   -0.0000   -3.6073    0.0000 C   0  0  0  0  0  0  0  0  0  0  0  0
    1.2135   -2.7256    0.0000 N   0  0  0  0  0  0  0  0  0  0  0  0
    0.7500   -1.2990    0.0000 C   0  0  0  0  0  0  0  0  0  0  0  0
    1.5000    0.0000    0.0000 C   0  0  0  0  0  0  0  0  0  0  0  0
    0.7500    1.2990    0.0000 C   0  0  0  0  0  0  0  0  0  0  0  0
   -0.7500    1.2990    0.0000 C   0  0  0  0  0  0  0  0  0  0  0  0
   -1.5000    0.0000    0.0000 C   0  0  0  0  0  0  0  0  0  0  0  0
   -0.7500   -1.2990    0.0000 C   0  0  0  0  0  0  0  0  0  0  0  0
   -1.2135   -2.7256    0.0000 N   0  0  0  0  0  0  0  0  0  0  0  0
   -2.5981   -9.6073    0.0000 C   0  0  0  0  0  0  0  0  0  0  0  0
   -3.8971  -10.3573    0.0000 C   0  0  0  0  0  0  0  0  0  0  0  0
  1  2  2  0
  2  3  1  0
  3  4  2  0
  4  5  1  0
  5  6  1  0
  6  7  1  0
  7  8  1  0
  8  9  2  0
  9 10  1  0
 10 11  2  0
 11 12  1  0
 12 13  2  0
 13 14  1  0
 14 15  2  0
 15 16  1  0
  4 17  1  0
 17 18  2  0
 18  1  1  0
 16  8  1  0
 15 10  1  0
M  END
>  <assay_chembl_id>  (372) 
CHEMBL2318841

>  <assay_description>  (372) 
Inhibition of BF3 site of androgen receptor in human LNCAP cells expressing ARR2PB after 3 days by eGFP transcriptional assay

>  <parent_molecule_chembl_id>  (372) 
CHEMBL2316538

>  <canonical_smiles>  (372) 
c1ccc(CCSc2nc3ccccc3[nH]2)cc1

>  <standard_type>  (372) 
IC50

>  <standard_relation>  (372) 
=

>  <standard_value>  (372) 
7400.0

>  <standard_units>  (372) 
nM

>  <target_pref_name>  (372) 
Androgen Receptor

>  <target_chembl_id>  (372) 
CHEMBL1871

>  <target_organism>  (372) 
Homo sapiens

>  <pchembl_median>  (372) 
7.7

$$$$
CHEMBL2316535
     RDKit          2D

 19 21  0  0  0  0  0  0  0  0999 V2000
   -2.5981  -12.6073    0.0000 C   0  0  0  0  0  0  0  0  0  0  0  0
   -3.8971  -11.8573    0.0000 C   0  0  0  0  0  0  0  0  0  0  0  0
   -3.8971  -10.3573    0.0000 C   0  0  0  0  0  0  0  0  0  0  0  0
   -2.5981   -9.6073    0.0000 C   0  0  0  0  0  0  0  0  0  0  0  0
   -2.5981   -8.1073    0.0000 C   0  0  0  0  0  0  0  0  0  0  0  0
   -1.2990   -7.3573    0.0000 C   0  0  0  0  0  0  0  0  0  0  0  0
   -1.2990   -5.8573    0.0000 C   0  0  0  0  0  0  0  0  0  0  0  0
   -0.0000   -5.1073    0.0000 S   0  0  0  0  0  0  0  0  0  0  0  0
   -0.0000   -3.6073    0.0000 C   0  0  0  0  0  0  0  0  0  0  0  0
    1.2135   -2.7256    0.0000 N   0  0  0  0  0  0  0  0  0  0  0  0
    0.7500   -1.2990    0.0000 C   0  0  0  0  0  0  0  0  0  0  0  0
    1.5000    0.0000    0.0000 C   0  0  0  0  0  0  0  0  0  0  0  0
    0.7500    1.2990    0.0000 C   0  0  0  0  0  0  0  0  0  0  0  0
   -0.7500    1.2990    0.0000 C   0  0  0  0  0  0  0  0  0  0  0  0
   -1.5000    0.0000    0.0000 C   0  0  0  0  0  0  0  0  0  0  0  0
   -0.7500   -1.2990    0.0000 C   0  0  0  0  0  0  0  0  0  0  0  0
   -1.2135   -2.7256    0.0000 N   0  0  0  0  0  0  0  0  0  0  0  0
   -1.2990  -10.3573    0.0000 C   0  0  0  0  0  0  0  0  0  0  0  0
   -1.2990  -11.8573    0.0000 C   0  0  0  0  0  0  0  0  0  0  0  0
  1  2  2  0
  2  3  1  0
  3  4  2  0
  4  5  1  0
  5  6  1  0
  6  7  1  0
  7  8  1  0
  8  9  1  0
  9 10  2  0
 10 11  1  0
 11 12  2  0
 12 13  1  0
 13 14  2  0
 14 15  1  0
 15 16  2  0
 16 17  1  0
  4 18  1  0
 18 19  2  0
 19  1  1  0
 17  9  1  0
 16 11  1  0
M  END
>  <assay_chembl_id>  (373) 
CHEMBL2318841

>  <assay_description>  (373) 
Inhibition of BF3 site of androgen receptor in human LNCAP cells expressing ARR2PB after 3 days by eGFP transcriptional assay

>  <parent_molecule_chembl_id>  (373) 
CHEMBL2316535

>  <canonical_smiles>  (373) 
c1ccc(CCCSc2nc3ccccc3[nH]2)cc1

>  <standard_type>  (373) 
IC50

>  <standard_relation>  (373) 
=

>  <standard_value>  (373) 
12000.0

>  <standard_units>  (373) 
nM

>  <target_pref_name>  (373) 
Androgen Receptor

>  <target_chembl_id>  (373) 
CHEMBL1871

>  <target_organism>  (373) 
Homo sapiens

>  <pchembl_median>  (373) 
9.0

$$$$
CHEMBL2316554
     RDKit          2D

 21 23  0  0  0  0  0  0  0  0999 V2000
   -3.7548   -2.1855    0.0000 C   0  0  0  0  0  0  0  0  0  0  0  0
   -2.6401   -3.1891    0.0000 C   0  0  0  0  0  0  0  0  0  0  0  0
   -1.2135   -2.7256    0.0000 N   0  0  0  0  0  0  0  0  0  0  0  0
   -0.0000   -3.6073    0.0000 C   0  0  0  0  0  0  0  0  0  0  0  0
   -0.0000   -5.1073    0.0000 S   0  0  0  0  0  0  0  0  0  0  0  0
   -1.2990   -5.8573    0.0000 C   0  0  0  0  0  0  0  0  0  0  0  0
   -1.2990   -7.3573    0.0000 C   0  0  0  0  0  0  0  0  0  0  0  0
   -2.5981   -8.1073    0.0000 O   0  0  0  0  0  0  0  0  0  0  0  0
   -2.5981   -9.6073    0.0000 C   0  0  0  0  0  0  0  0  0  0  0  0
   -3.8971  -10.3573    0.0000 C   0  0  0  0  0  0  0  0  0  0  0  0
   -3.8971  -11.8573    0.0000 C   0  0  0  0  0  0  0  0  0  0  0  0
   -2.5981  -12.6073    0.0000 C   0  0  0  0  0  0  0  0  0  0  0  0
   -1.2990  -11.8573    0.0000 C   0  0  0  0  0  0  0  0  0  0  0  0
   -1.2990  -10.3573    0.0000 C   0  0  0  0  0  0  0  0  0  0  0  0
    1.2135   -2.7256    0.0000 N   0  0  0  0  0  0  0  0  0  0  0  0
    0.7500   -1.2990    0.0000 C   0  0  0  0  0  0  0  0  0  0  0  0
    1.5000    0.0000    0.0000 C   0  0  0  0  0  0  0  0  0  0  0  0
    0.7500    1.2990    0.0000 C   0  0  0  0  0  0  0  0  0  0  0  0
   -0.7500    1.2990    0.0000 C   0  0  0  0  0  0  0  0  0  0  0  0
   -1.5000    0.0000    0.0000 C   0  0  0  0  0  0  0  0  0  0  0  0
   -0.7500   -1.2990    0.0000 C   0  0  0  0  0  0  0  0  0  0  0  0
  1  2  1  0
  2  3  1  0
  3  4  1  0
  4  5  1  0
  5  6  1  0
  6  7  1  0
  7  8  1  0
  8  9  1  0
  9 10  2  0
 10 11  1  0
 11 12  2  0
 12 13  1  0
 13 14  2  0
  4 15  2  0
 15 16  1  0
 16 17  2  0
 17 18  1  0
 18 19  2  0
 19 20  1  0
 20 21  2  0
 21  3  1  0
 14  9  1  0
 21 16  1  0
M  END
>  <assay_chembl_id>  (374) 
CHEMBL2318841

>  <assay_description>  (374) 
Inhibition of BF3 site of androgen receptor in human LNCAP cells expressing ARR2PB after 3 days by eGFP transcriptional assay

>  <parent_molecule_chembl_id>  (374) 
CHEMBL2316554

>  <canonical_smiles>  (374) 
CCn1c(SCCOc2ccccc2)nc2ccccc21

>  <standard_type>  (374) 
IC50

>  <standard_relation>  (374) 
=

>  <standard_value>  (374) 
12000.0

>  <standard_units>  (374) 
nM

>  <target_pref_name>  (374) 
Androgen Receptor

>  <target_chembl_id>  (374) 
CHEMBL1871

>  <target_organism>  (374) 
Homo sapiens

>  <pchembl_median>  (374) 
8.0

$$$$
CHEMBL2316570
     RDKit          2D

 27 29  0  0  0  0  0  0  0  0999 V2000
   -7.7227   -2.1088    0.0000 C   0  0  0  0  0  0  0  0  0  0  0  0
   -6.2961   -1.6453    0.0000 C   0  0  0  0  0  0  0  0  0  0  0  0
   -5.1814   -2.6490    0.0000 O   0  0  0  0  0  0  0  0  0  0  0  0
   -3.7548   -2.1855    0.0000 C   0  0  0  0  0  0  0  0  0  0  0  0
   -3.4430   -0.7182    0.0000 O   0  0  0  0  0  0  0  0  0  0  0  0
   -2.6401   -3.1891    0.0000 C   0  0  0  0  0  0  0  0  0  0  0  0
   -1.2135   -2.7256    0.0000 N   0  0  0  0  0  0  0  0  0  0  0  0
   -0.0000   -3.6073    0.0000 C   0  0  0  0  0  0  0  0  0  0  0  0
   -0.0000   -5.1073    0.0000 S   0  0  0  0  0  0  0  0  0  0  0  0
   -1.2990   -5.8573    0.0000 C   0  0  0  0  0  0  0  0  0  0  0  0
   -1.2990   -7.3573    0.0000 C   0  0  0  0  0  0  0  0  0  0  0  0
   -2.5981   -8.1073    0.0000 O   0  0  0  0  0  0  0  0  0  0  0  0
   -2.5981   -9.6073    0.0000 C   0  0  0  0  0  0  0  0  0  0  0  0
   -3.8971  -10.3573    0.0000 C   0  0  0  0  0  0  0  0  0  0  0  0
   -3.8971  -11.8573    0.0000 C   0  0  0  0  0  0  0  0  0  0  0  0
   -2.5981  -12.6073    0.0000 C   0  0  0  0  0  0  0  0  0  0  0  0
   -1.2990  -11.8573    0.0000 C   0  0  0  0  0  0  0  0  0  0  0  0
   -0.0000  -12.6073    0.0000 C   0  0  0  0  0  0  0  0  0  0  0  0
   -0.0000  -14.1073    0.0000 C   0  0  0  0  0  0  0  0  0  0  0  0
   -1.2990  -10.3573    0.0000 C   0  0  0  0  0  0  0  0  0  0  0  0
    1.2135   -2.7256    0.0000 N   0  0  0  0  0  0  0  0  0  0  0  0
    0.7500   -1.2990    0.0000 C   0  0  0  0  0  0  0  0  0  0  0  0
    1.5000    0.0000    0.0000 C   0  0  0  0  0  0  0  0  0  0  0  0
    0.7500    1.2990    0.0000 C   0  0  0  0  0  0  0  0  0  0  0  0
   -0.7500    1.2990    0.0000 C   0  0  0  0  0  0  0  0  0  0  0  0
   -1.5000    0.0000    0.0000 C   0  0  0  0  0  0  0  0  0  0  0  0
   -0.7500   -1.2990    0.0000 C   0  0  0  0  0  0  0  0  0  0  0  0
  1  2  1  0
  2  3  1  0
  3  4  1  0
  4  5  2  0
  4  6  1  0
  6  7  1  0
  7  8  1  0
  8  9  1  0
  9 10  1  0
 10 11  1  0
 11 12  1  0
 12 13  1  0
 13 14  2  0
 14 15  1  0
 15 16  2  0
 16 17  1  0
 17 18  1  0
 18 19  1  0
 17 20  2  0
  8 21  2  0
 21 22  1  0
 22 23  2  0
 23 24  1  0
 24 25  2  0
 25 26  1  0
 26 27  2  0
 27  7  1  0
 20 13  1  0
 27 22  1  0
M  END
>  <assay_chembl_id>  (375) 
CHEMBL2318841

>  <assay_description>  (375) 
Inhibition of BF3 site of androgen receptor in human LNCAP cells expressing ARR2PB after 3 days by eGFP transcriptional assay

>  <parent_molecule_chembl_id>  (375) 
CHEMBL2316570

>  <canonical_smiles>  (375) 
CCOC(=O)Cn1c(SCCOc2cccc(CC)c2)nc2ccccc21

>  <standard_type>  (375) 
IC50

>  <standard_relation>  (375) 
=

>  <standard_value>  (375) 
55000.0

>  <standard_units>  (375) 
nM

>  <target_pref_name>  (375) 
Androgen Receptor

>  <target_chembl_id>  (375) 
CHEMBL1871

>  <target_organism>  (375) 
Homo sapiens

>  <pchembl_median>  (375) 
8.15

$$$$
CHEMBL2316569
     RDKit          2D

 21 23  0  0  0  0  0  0  0  0999 V2000
   -0.0000  -12.6073    0.0000 C   0  0  0  0  0  0  0  0  0  0  0  0
   -1.2990  -11.8573    0.0000 C   0  0  0  0  0  0  0  0  0  0  0  0
   -2.5981  -12.6073    0.0000 C   0  0  0  0  0  0  0  0  0  0  0  0
   -3.8971  -11.8573    0.0000 C   0  0  0  0  0  0  0  0  0  0  0  0
   -3.8971  -10.3573    0.0000 C   0  0  0  0  0  0  0  0  0  0  0  0
   -2.5981   -9.6073    0.0000 C   0  0  0  0  0  0  0  0  0  0  0  0
   -2.5981   -8.1073    0.0000 O   0  0  0  0  0  0  0  0  0  0  0  0
   -1.2990   -7.3573    0.0000 C   0  0  0  0  0  0  0  0  0  0  0  0
   -1.2990   -5.8573    0.0000 C   0  0  0  0  0  0  0  0  0  0  0  0
   -0.0000   -5.1073    0.0000 S   0  0  0  0  0  0  0  0  0  0  0  0
   -0.0000   -3.6073    0.0000 C   0  0  0  0  0  0  0  0  0  0  0  0
    1.2135   -2.7256    0.0000 N   0  0  0  0  0  0  0  0  0  0  0  0
    0.7500   -1.2990    0.0000 C   0  0  0  0  0  0  0  0  0  0  0  0
    1.5000    0.0000    0.0000 C   0  0  0  0  0  0  0  0  0  0  0  0
    0.7500    1.2990    0.0000 C   0  0  0  0  0  0  0  0  0  0  0  0
   -0.7500    1.2990    0.0000 C   0  0  0  0  0  0  0  0  0  0  0  0
   -1.5000    0.0000    0.0000 C   0  0  0  0  0  0  0  0  0  0  0  0
   -0.7500   -1.2990    0.0000 C   0  0  0  0  0  0  0  0  0  0  0  0
   -1.2135   -2.7256    0.0000 N   0  0  0  0  0  0  0  0  0  0  0  0
   -2.6401   -3.1891    0.0000 C   0  0  0  0  0  0  0  0  0  0  0  0
   -1.2990  -10.3573    0.0000 C   0  0  0  0  0  0  0  0  0  0  0  0
  1  2  1  0
  2  3  2  0
  3  4  1  0
  4  5  2  0
  5  6  1  0
  6  7  1  0
  7  8  1  0
  8  9  1  0
  9 10  1  0
 10 11  1  0
 11 12  2  0
 12 13  1  0
 13 14  2  0
 14 15  1  0
 15 16  2  0
 16 17  1  0
 17 18  2  0
 18 19  1  0
 19 20  1  0
  6 21  2  0
 21  2  1  0
 19 11  1  0
 18 13  1  0
M  END
>  <assay_chembl_id>  (376) 
CHEMBL2318841

>  <assay_description>  (376) 
Inhibition of BF3 site of androgen receptor in human LNCAP cells expressing ARR2PB after 3 days by eGFP transcriptional assay

>  <parent_molecule_chembl_id>  (376) 
CHEMBL2316569

>  <canonical_smiles>  (376) 
Cc1cccc(OCCSc2nc3ccccc3n2C)c1

>  <standard_type>  (376) 
IC50

>  <standard_relation>  (376) 
=

>  <standard_value>  (376) 
45000.0

>  <standard_units>  (376) 
nM

>  <target_pref_name>  (376) 
Androgen Receptor

>  <target_chembl_id>  (376) 
CHEMBL1871

>  <target_organism>  (376) 
Homo sapiens

>  <pchembl_median>  (376) 
7.8

$$$$
CHEMBL2316568
     RDKit          2D

 27 29  0  0  0  0  0  0  0  0999 V2000
   -7.7227   -2.1088    0.0000 C   0  0  0  0  0  0  0  0  0  0  0  0
   -6.2961   -1.6453    0.0000 C   0  0  0  0  0  0  0  0  0  0  0  0
   -5.1814   -2.6490    0.0000 O   0  0  0  0  0  0  0  0  0  0  0  0
   -3.7548   -2.1855    0.0000 C   0  0  0  0  0  0  0  0  0  0  0  0
   -3.4430   -0.7182    0.0000 O   0  0  0  0  0  0  0  0  0  0  0  0
   -2.6401   -3.1891    0.0000 C   0  0  0  0  0  0  0  0  0  0  0  0
   -1.2135   -2.7256    0.0000 N   0  0  0  0  0  0  0  0  0  0  0  0
   -0.0000   -3.6073    0.0000 C   0  0  0  0  0  0  0  0  0  0  0  0
   -0.0000   -5.1073    0.0000 S   0  0  0  0  0  0  0  0  0  0  0  0
   -1.2990   -5.8573    0.0000 C   0  0  0  0  0  0  0  0  0  0  0  0
   -1.2990   -7.3573    0.0000 C   0  0  0  0  0  0  0  0  0  0  0  0
   -2.5981   -8.1073    0.0000 O   0  0  0  0  0  0  0  0  0  0  0  0
   -2.5981   -9.6073    0.0000 C   0  0  0  0  0  0  0  0  0  0  0  0
   -3.8971  -10.3573    0.0000 C   0  0  0  0  0  0  0  0  0  0  0  0
   -3.8971  -11.8573    0.0000 C   0  0  0  0  0  0  0  0  0  0  0  0
   -2.5981  -12.6073    0.0000 C   0  0  0  0  0  0  0  0  0  0  0  0
   -2.5981  -14.1073    0.0000 C   0  0  0  0  0  0  0  0  0  0  0  0
   -1.2990  -11.8573    0.0000 C   0  0  0  0  0  0  0  0  0  0  0  0
   -0.0000  -12.6073    0.0000 C   0  0  0  0  0  0  0  0  0  0  0  0
   -1.2990  -10.3573    0.0000 C   0  0  0  0  0  0  0  0  0  0  0  0
    1.2135   -2.7256    0.0000 N   0  0  0  0  0  0  0  0  0  0  0  0
    0.7500   -1.2990    0.0000 C   0  0  0  0  0  0  0  0  0  0  0  0
    1.5000    0.0000    0.0000 C   0  0  0  0  0  0  0  0  0  0  0  0
    0.7500    1.2990    0.0000 C   0  0  0  0  0  0  0  0  0  0  0  0
   -0.7500    1.2990    0.0000 C   0  0  0  0  0  0  0  0  0  0  0  0
   -1.5000    0.0000    0.0000 C   0  0  0  0  0  0  0  0  0  0  0  0
   -0.7500   -1.2990    0.0000 C   0  0  0  0  0  0  0  0  0  0  0  0
  1  2  1  0
  2  3  1  0
  3  4  1  0
  4  5  2  0
  4  6  1  0
  6  7  1  0
  7  8  1  0
  8  9  1  0
  9 10  1  0
 10 11  1  0
 11 12  1  0
 12 13  1  0
 13 14  2  0
 14 15  1  0
 15 16  2  0
 16 17  1  0
 16 18  1  0
 18 19  1  0
 18 20  2  0
  8 21  2  0
 21 22  1  0
 22 23  2  0
 23 24  1  0
 24 25  2  0
 25 26  1  0
 26 27  2  0
 27  7  1  0
 20 13  1  0
 27 22  1  0
M  END
>  <assay_chembl_id>  (377) 
CHEMBL2318841

>  <assay_description>  (377) 
Inhibition of BF3 site of androgen receptor in human LNCAP cells expressing ARR2PB after 3 days by eGFP transcriptional assay

>  <parent_molecule_chembl_id>  (377) 
CHEMBL2316568

>  <canonical_smiles>  (377) 
CCOC(=O)Cn1c(SCCOc2ccc(C)c(C)c2)nc2ccccc21

>  <standard_type>  (377) 
IC50

>  <standard_relation>  (377) 
=

>  <standard_value>  (377) 
40300.0

>  <standard_units>  (377) 
nM

>  <target_pref_name>  (377) 
Androgen Receptor

>  <target_chembl_id>  (377) 
CHEMBL1871

>  <target_organism>  (377) 
Homo sapiens

>  <pchembl_median>  (377) 
6.055

$$$$
CHEMBL2316567
     RDKit          2D

 22 24  0  0  0  0  0  0  0  0999 V2000
   -3.7548   -2.1855    0.0000 C   0  0  0  0  0  0  0  0  0  0  0  0
   -2.6401   -3.1891    0.0000 C   0  0  0  0  0  0  0  0  0  0  0  0
   -1.2135   -2.7256    0.0000 N   0  0  0  0  0  0  0  0  0  0  0  0
   -0.0000   -3.6073    0.0000 C   0  0  0  0  0  0  0  0  0  0  0  0
   -0.0000   -5.1073    0.0000 S   0  0  0  0  0  0  0  0  0  0  0  0
   -1.2990   -5.8573    0.0000 C   0  0  0  0  0  0  0  0  0  0  0  0
   -1.2990   -7.3573    0.0000 C   0  0  0  0  0  0  0  0  0  0  0  0
   -2.5981   -8.1073    0.0000 O   0  0  0  0  0  0  0  0  0  0  0  0
   -2.5981   -9.6073    0.0000 C   0  0  0  0  0  0  0  0  0  0  0  0
   -3.8971  -10.3573    0.0000 C   0  0  0  0  0  0  0  0  0  0  0  0
   -3.8971  -11.8573    0.0000 C   0  0  0  0  0  0  0  0  0  0  0  0
   -2.5981  -12.6073    0.0000 C   0  0  0  0  0  0  0  0  0  0  0  0
   -1.2990  -11.8573    0.0000 C   0  0  0  0  0  0  0  0  0  0  0  0
   -0.0000  -12.6073    0.0000 C   0  0  0  0  0  0  0  0  0  0  0  0
   -1.2990  -10.3573    0.0000 C   0  0  0  0  0  0  0  0  0  0  0  0
    1.2135   -2.7256    0.0000 N   0  0  0  0  0  0  0  0  0  0  0  0
    0.7500   -1.2990    0.0000 C   0  0  0  0  0  0  0  0  0  0  0  0
    1.5000    0.0000    0.0000 C   0  0  0  0  0  0  0  0  0  0  0  0
    0.7500    1.2990    0.0000 C   0  0  0  0  0  0  0  0  0  0  0  0
   -0.7500    1.2990    0.0000 C   0  0  0  0  0  0  0  0  0  0  0  0
   -1.5000    0.0000    0.0000 C   0  0  0  0  0  0  0  0  0  0  0  0
   -0.7500   -1.2990    0.0000 C   0  0  0  0  0  0  0  0  0  0  0  0
  1  2  1  0
  2  3  1  0
  3  4  1  0
  4  5  1  0
  5  6  1  0
  6  7  1  0
  7  8  1  0
  8  9  1  0
  9 10  2  0
 10 11  1  0
 11 12  2  0
 12 13  1  0
 13 14  1  0
 13 15  2  0
  4 16  2  0
 16 17  1  0
 17 18  2  0
 18 19  1  0
 19 20  2  0
 20 21  1  0
 21 22  2  0
 22  3  1  0
 15  9  1  0
 22 17  1  0
M  END
>  <assay_chembl_id>  (378) 
CHEMBL2318841

>  <assay_description>  (378) 
Inhibition of BF3 site of androgen receptor in human LNCAP cells expressing ARR2PB after 3 days by eGFP transcriptional assay

>  <parent_molecule_chembl_id>  (378) 
CHEMBL2316567

>  <canonical_smiles>  (378) 
CCn1c(SCCOc2cccc(C)c2)nc2ccccc21

>  <standard_type>  (378) 
IC50

>  <standard_relation>  (378) 
=

>  <standard_value>  (378) 
35000.0

>  <standard_units>  (378) 
nM

>  <target_pref_name>  (378) 
Androgen Receptor

>  <target_chembl_id>  (378) 
CHEMBL1871

>  <target_organism>  (378) 
Homo sapiens

>  <pchembl_median>  (378) 
5.19

$$$$
CHEMBL2316566
     RDKit          2D

 25 27  0  0  0  0  0  0  0  0999 V2000
   -6.2961   -1.6453    0.0000 C   0  0  0  0  0  0  0  0  0  0  0  0
   -5.1814   -2.6490    0.0000 O   0  0  0  0  0  0  0  0  0  0  0  0
   -3.7548   -2.1855    0.0000 C   0  0  0  0  0  0  0  0  0  0  0  0
   -3.4430   -0.7182    0.0000 O   0  0  0  0  0  0  0  0  0  0  0  0
   -2.6401   -3.1891    0.0000 C   0  0  0  0  0  0  0  0  0  0  0  0
   -1.2135   -2.7256    0.0000 N   0  0  0  0  0  0  0  0  0  0  0  0
   -0.0000   -3.6073    0.0000 C   0  0  0  0  0  0  0  0  0  0  0  0
   -0.0000   -5.1073    0.0000 S   0  0  0  0  0  0  0  0  0  0  0  0
   -1.2990   -5.8573    0.0000 C   0  0  0  0  0  0  0  0  0  0  0  0
   -1.2990   -7.3573    0.0000 C   0  0  0  0  0  0  0  0  0  0  0  0
   -2.5981   -8.1073    0.0000 O   0  0  0  0  0  0  0  0  0  0  0  0
   -2.5981   -9.6073    0.0000 C   0  0  0  0  0  0  0  0  0  0  0  0
   -3.8971  -10.3573    0.0000 C   0  0  0  0  0  0  0  0  0  0  0  0
   -3.8971  -11.8573    0.0000 C   0  0  0  0  0  0  0  0  0  0  0  0
   -2.5981  -12.6073    0.0000 C   0  0  0  0  0  0  0  0  0  0  0  0
   -2.5981  -14.1073    0.0000 C   0  0  0  0  0  0  0  0  0  0  0  0
   -1.2990  -11.8573    0.0000 C   0  0  0  0  0  0  0  0  0  0  0  0
   -1.2990  -10.3573    0.0000 C   0  0  0  0  0  0  0  0  0  0  0  0
    1.2135   -2.7256    0.0000 N   0  0  0  0  0  0  0  0  0  0  0  0
    0.7500   -1.2990    0.0000 C   0  0  0  0  0  0  0  0  0  0  0  0
    1.5000    0.0000    0.0000 C   0  0  0  0  0  0  0  0  0  0  0  0
    0.7500    1.2990    0.0000 C   0  0  0  0  0  0  0  0  0  0  0  0
   -0.7500    1.2990    0.0000 C   0  0  0  0  0  0  0  0  0  0  0  0
   -1.5000    0.0000    0.0000 C   0  0  0  0  0  0  0  0  0  0  0  0
   -0.7500   -1.2990    0.0000 C   0  0  0  0  0  0  0  0  0  0  0  0
  1  2  1  0
  2  3  1  0
  3  4  2  0
  3  5  1  0
  5  6  1  0
  6  7  1  0
  7  8  1  0
  8  9  1  0
  9 10  1  0
 10 11  1  0
 11 12  1  0
 12 13  2  0
 13 14  1  0
 14 15  2  0
 15 16  1  0
 15 17  1  0
 17 18  2  0
  7 19  2  0
 19 20  1  0
 20 21  2  0
 21 22  1  0
 22 23  2  0
 23 24  1  0
 24 25  2  0
 25  6  1  0
 18 12  1  0
 25 20  1  0
M  END
>  <assay_chembl_id>  (379) 
CHEMBL2318841

>  <assay_description>  (379) 
Inhibition of BF3 site of androgen receptor in human LNCAP cells expressing ARR2PB after 3 days by eGFP transcriptional assay

>  <parent_molecule_chembl_id>  (379) 
CHEMBL2316566

>  <canonical_smiles>  (379) 
COC(=O)Cn1c(SCCOc2ccc(C)cc2)nc2ccccc21

>  <standard_type>  (379) 
IC50

>  <standard_relation>  (379) 
=

>  <standard_value>  (379) 
32900.0

>  <standard_units>  (379) 
nM

>  <target_pref_name>  (379) 
Androgen Receptor

>  <target_chembl_id>  (379) 
CHEMBL1871

>  <target_organism>  (379) 
Homo sapiens

>  <pchembl_median>  (379) 
6.11

$$$$
CHEMBL2316565
     RDKit          2D

 28 30  0  0  0  0  0  0  0  0999 V2000
   -2.5981  -14.1073    0.0000 C   0  0  0  0  0  0  0  0  0  0  0  0
   -2.5981  -12.6073    0.0000 C   0  0  0  0  0  0  0  0  0  0  0  0
   -3.8971  -11.8573    0.0000 C   0  0  0  0  0  0  0  0  0  0  0  0
   -3.8971  -10.3573    0.0000 C   0  0  0  0  0  0  0  0  0  0  0  0
   -2.5981   -9.6073    0.0000 C   0  0  0  0  0  0  0  0  0  0  0  0
   -2.5981   -8.1073    0.0000 O   0  0  0  0  0  0  0  0  0  0  0  0
   -1.2990   -7.3573    0.0000 C   0  0  0  0  0  0  0  0  0  0  0  0
   -1.2990   -5.8573    0.0000 C   0  0  0  0  0  0  0  0  0  0  0  0
   -0.0000   -5.1073    0.0000 S   0  0  0  0  0  0  0  0  0  0  0  0
   -0.0000   -3.6073    0.0000 C   0  0  0  0  0  0  0  0  0  0  0  0
    1.2135   -2.7256    0.0000 N   0  0  0  0  0  0  0  0  0  0  0  0
    0.7500   -1.2990    0.0000 C   0  0  0  0  0  0  0  0  0  0  0  0
    1.5000    0.0000    0.0000 C   0  0  0  0  0  0  0  0  0  0  0  0
    0.7500    1.2990    0.0000 C   0  0  0  0  0  0  0  0  0  0  0  0
   -0.7500    1.2990    0.0000 C   0  0  0  0  0  0  0  0  0  0  0  0
   -1.5000    0.0000    0.0000 C   0  0  0  0  0  0  0  0  0  0  0  0
   -0.7500   -1.2990    0.0000 C   0  0  0  0  0  0  0  0  0  0  0  0
   -1.2135   -2.7256    0.0000 N   0  0  0  0  0  0  0  0  0  0  0  0
   -2.6401   -3.1891    0.0000 C   0  0  0  0  0  0  0  0  0  0  0  0
   -3.7548   -2.1855    0.0000 C   0  0  0  0  0  0  0  0  0  0  0  0
   -3.4430   -0.7182    0.0000 O   0  0  0  0  0  0  0  0  0  0  0  0
   -5.1814   -2.6490    0.0000 O   0  0  0  0  0  0  0  0  0  0  0  0
   -6.2961   -1.6453    0.0000 C   0  0  0  0  0  0  0  0  0  0  0  0
   -7.7227   -2.1088    0.0000 C   0  0  0  0  0  0  0  0  0  0  0  0
   -5.9843   -0.1781    0.0000 C   0  0  0  0  0  0  0  0  0  0  0  0
   -1.2990  -10.3573    0.0000 C   0  0  0  0  0  0  0  0  0  0  0  0
   -1.2990  -11.8573    0.0000 C   0  0  0  0  0  0  0  0  0  0  0  0
   -0.0000  -12.6073    0.0000 C   0  0  0  0  0  0  0  0  0  0  0  0
  1  2  1  0
  2  3  2  0
  3  4  1  0
  4  5  2  0
  5  6  1  0
  6  7  1  0
  7  8  1  0
  8  9  1  0
  9 10  1  0
 10 11  2  0
 11 12  1  0
 12 13  2  0
 13 14  1  0
 14 15  2  0
 15 16  1  0
 16 17  2  0
 17 18  1  0
 18 19  1  0
 19 20  1  0
 20 21  2  0
 20 22  1  0
 22 23  1  0
 23 24  1  0
 23 25  1  0
  5 26  1  0
 26 27  2  0
 27 28  1  0
 27  2  1  0
 18 10  1  0
 17 12  1  0
M  END
>  <assay_chembl_id>  (380) 
CHEMBL2318841

>  <assay_description>  (380) 
Inhibition of BF3 site of androgen receptor in human LNCAP cells expressing ARR2PB after 3 days by eGFP transcriptional assay

>  <parent_molecule_chembl_id>  (380) 
CHEMBL2316565

>  <canonical_smiles>  (380) 
Cc1ccc(OCCSc2nc3ccccc3n2CC(=O)OC(C)C)cc1C

>  <standard_type>  (380) 
IC50

>  <standard_relation>  (380) 
=

>  <standard_value>  (380) 
30600.0

>  <standard_units>  (380) 
nM

>  <target_pref_name>  (380) 
Androgen Receptor

>  <target_chembl_id>  (380) 
CHEMBL1871

>  <target_organism>  (380) 
Homo sapiens

>  <pchembl_median>  (380) 
5.59

$$$$
CHEMBL2316564
     RDKit          2D

 24 26  0  0  0  0  0  0  0  0999 V2000
   -6.2961   -1.6453    0.0000 C   0  0  0  0  0  0  0  0  0  0  0  0
   -5.1814   -2.6490    0.0000 O   0  0  0  0  0  0  0  0  0  0  0  0
   -3.7548   -2.1855    0.0000 C   0  0  0  0  0  0  0  0  0  0  0  0
   -2.6401   -3.1891    0.0000 C   0  0  0  0  0  0  0  0  0  0  0  0
   -1.2135   -2.7256    0.0000 N   0  0  0  0  0  0  0  0  0  0  0  0
   -0.0000   -3.6073    0.0000 C   0  0  0  0  0  0  0  0  0  0  0  0
   -0.0000   -5.1073    0.0000 S   0  0  0  0  0  0  0  0  0  0  0  0
   -1.2990   -5.8573    0.0000 C   0  0  0  0  0  0  0  0  0  0  0  0
   -1.2990   -7.3573    0.0000 C   0  0  0  0  0  0  0  0  0  0  0  0
   -2.5981   -8.1073    0.0000 O   0  0  0  0  0  0  0  0  0  0  0  0
   -2.5981   -9.6073    0.0000 C   0  0  0  0  0  0  0  0  0  0  0  0
   -3.8971  -10.3573    0.0000 C   0  0  0  0  0  0  0  0  0  0  0  0
   -3.8971  -11.8573    0.0000 C   0  0  0  0  0  0  0  0  0  0  0  0
   -2.5981  -12.6073    0.0000 C   0  0  0  0  0  0  0  0  0  0  0  0
   -1.2990  -11.8573    0.0000 C   0  0  0  0  0  0  0  0  0  0  0  0
   -0.0000  -12.6073    0.0000 C   0  0  0  0  0  0  0  0  0  0  0  0
   -1.2990  -10.3573    0.0000 C   0  0  0  0  0  0  0  0  0  0  0  0
    1.2135   -2.7256    0.0000 N   0  0  0  0  0  0  0  0  0  0  0  0
    0.7500   -1.2990    0.0000 C   0  0  0  0  0  0  0  0  0  0  0  0
    1.5000    0.0000    0.0000 C   0  0  0  0  0  0  0  0  0  0  0  0
    0.7500    1.2990    0.0000 C   0  0  0  0  0  0  0  0  0  0  0  0
   -0.7500    1.2990    0.0000 C   0  0  0  0  0  0  0  0  0  0  0  0
   -1.5000    0.0000    0.0000 C   0  0  0  0  0  0  0  0  0  0  0  0
   -0.7500   -1.2990    0.0000 C   0  0  0  0  0  0  0  0  0  0  0  0
  1  2  1  0
  2  3  1  0
  3  4  1  0
  4  5  1  0
  5  6  1  0
  6  7  1  0
  7  8  1  0
  8  9  1  0
  9 10  1  0
 10 11  1  0
 11 12  2  0
 12 13  1  0
 13 14  2  0
 14 15  1  0
 15 16  1  0
 15 17  2  0
  6 18  2  0
 18 19  1  0
 19 20  2  0
 20 21  1  0
 21 22  2  0
 22 23  1  0
 23 24  2  0
 24  5  1  0
 17 11  1  0
 24 19  1  0
M  END
>  <assay_chembl_id>  (381) 
CHEMBL2318841

>  <assay_description>  (381) 
Inhibition of BF3 site of androgen receptor in human LNCAP cells expressing ARR2PB after 3 days by eGFP transcriptional assay

>  <parent_molecule_chembl_id>  (381) 
CHEMBL2316564

>  <canonical_smiles>  (381) 
COCCn1c(SCCOc2cccc(C)c2)nc2ccccc21

>  <standard_type>  (381) 
IC50

>  <standard_relation>  (381) 
=

>  <standard_value>  (381) 
24100.0

>  <standard_units>  (381) 
nM

>  <target_pref_name>  (381) 
Androgen Receptor

>  <target_chembl_id>  (381) 
CHEMBL1871

>  <target_organism>  (381) 
Homo sapiens

>  <pchembl_median>  (381) 
8.22

$$$$
CHEMBL2316563
     RDKit          2D

 32 35  0  0  0  0  0  0  0  0999 V2000
    1.2990  -14.8573    0.0000 C   0  0  0  0  0  0  0  0  0  0  0  0
   -0.0000  -14.1073    0.0000 C   0  0  0  0  0  0  0  0  0  0  0  0
   -0.0000  -12.6073    0.0000 O   0  0  0  0  0  0  0  0  0  0  0  0
   -1.2990  -11.8573    0.0000 C   0  0  0  0  0  0  0  0  0  0  0  0
   -2.5981  -12.6073    0.0000 C   0  0  0  0  0  0  0  0  0  0  0  0
   -3.8971  -11.8573    0.0000 C   0  0  0  0  0  0  0  0  0  0  0  0
   -3.8971  -10.3573    0.0000 C   0  0  0  0  0  0  0  0  0  0  0  0
   -2.5981   -9.6073    0.0000 C   0  0  0  0  0  0  0  0  0  0  0  0
   -2.5981   -8.1073    0.0000 O   0  0  0  0  0  0  0  0  0  0  0  0
   -1.2990   -7.3573    0.0000 C   0  0  0  0  0  0  0  0  0  0  0  0
   -1.2990   -5.8573    0.0000 C   0  0  0  0  0  0  0  0  0  0  0  0
   -0.0000   -5.1073    0.0000 S   0  0  0  0  0  0  0  0  0  0  0  0
   -0.0000   -3.6073    0.0000 C   0  0  0  0  0  0  0  0  0  0  0  0
    1.2135   -2.7256    0.0000 N   0  0  0  0  0  0  0  0  0  0  0  0
    0.7500   -1.2990    0.0000 C   0  0  0  0  0  0  0  0  0  0  0  0
    1.5000    0.0000    0.0000 C   0  0  0  0  0  0  0  0  0  0  0  0
    0.7500    1.2990    0.0000 C   0  0  0  0  0  0  0  0  0  0  0  0
   -0.7500    1.2990    0.0000 C   0  0  0  0  0  0  0  0  0  0  0  0
   -1.5000    0.0000    0.0000 C   0  0  0  0  0  0  0  0  0  0  0  0
   -0.7500   -1.2990    0.0000 C   0  0  0  0  0  0  0  0  0  0  0  0
   -1.2135   -2.7256    0.0000 N   0  0  0  0  0  0  0  0  0  0  0  0
   -2.6401   -3.1891    0.0000 C   0  0  0  0  0  0  0  0  0  0  0  0
   -3.7548   -2.1855    0.0000 C   0  0  0  0  0  0  0  0  0  0  0  0
   -5.1814   -2.6490    0.0000 O   0  0  0  0  0  0  0  0  0  0  0  0
   -6.2961   -1.6453    0.0000 C   0  0  0  0  0  0  0  0  0  0  0  0
   -5.9843   -0.1781    0.0000 C   0  0  0  0  0  0  0  0  0  0  0  0
   -7.0990    0.8256    0.0000 C   0  0  0  0  0  0  0  0  0  0  0  0
   -8.5256    0.3621    0.0000 C   0  0  0  0  0  0  0  0  0  0  0  0
   -9.6403    1.3658    0.0000 C   0  0  0  0  0  0  0  0  0  0  0  0
   -8.8374   -1.1051    0.0000 C   0  0  0  0  0  0  0  0  0  0  0  0
   -7.7227   -2.1088    0.0000 C   0  0  0  0  0  0  0  0  0  0  0  0
   -1.2990  -10.3573    0.0000 C   0  0  0  0  0  0  0  0  0  0  0  0
  1  2  1  0
  2  3  1  0
  3  4  1  0
  4  5  2  0
  5  6  1  0
  6  7  2  0
  7  8  1  0
  8  9  1  0
  9 10  1  0
 10 11  1  0
 11 12  1  0
 12 13  1  0
 13 14  2  0
 14 15  1  0
 15 16  2  0
 16 17  1  0
 17 18  2  0
 18 19  1  0
 19 20  2  0
 20 21  1  0
 21 22  1  0
 22 23  1  0
 23 24  1  0
 24 25  1  0
 25 26  2  0
 26 27  1  0
 27 28  2  0
 28 29  1  0
 28 30  1  0
 30 31  2  0
  8 32  2  0
 32  4  1  0
 21 13  1  0
 31 25  1  0
 20 15  1  0
M  END
>  <assay_chembl_id>  (382) 
CHEMBL2318841

>  <assay_description>  (382) 
Inhibition of BF3 site of androgen receptor in human LNCAP cells expressing ARR2PB after 3 days by eGFP transcriptional assay

>  <parent_molecule_chembl_id>  (382) 
CHEMBL2316563

>  <canonical_smiles>  (382) 
CCOc1cccc(OCCSc2nc3ccccc3n2CCOc2ccc(C)cc2)c1

>  <standard_type>  (382) 
IC50

>  <standard_relation>  (382) 
=

>  <standard_value>  (382) 
22800.0

>  <standard_units>  (382) 
nM

>  <target_pref_name>  (382) 
Androgen Receptor

>  <target_chembl_id>  (382) 
CHEMBL1871

>  <target_organism>  (382) 
Homo sapiens

>  <pchembl_median>  (382) 
7.21

$$$$
CHEMBL2316562
     RDKit          2D

 26 28  0  0  0  0  0  0  0  0999 V2000
   -7.7227   -2.1088    0.0000 C   0  0  0  0  0  0  0  0  0  0  0  0
   -6.2961   -1.6453    0.0000 C   0  0  0  0  0  0  0  0  0  0  0  0
   -5.1814   -2.6490    0.0000 O   0  0  0  0  0  0  0  0  0  0  0  0
   -3.7548   -2.1855    0.0000 C   0  0  0  0  0  0  0  0  0  0  0  0
   -3.4430   -0.7182    0.0000 O   0  0  0  0  0  0  0  0  0  0  0  0
   -2.6401   -3.1891    0.0000 C   0  0  0  0  0  0  0  0  0  0  0  0
   -1.2135   -2.7256    0.0000 N   0  0  0  0  0  0  0  0  0  0  0  0
   -0.0000   -3.6073    0.0000 C   0  0  0  0  0  0  0  0  0  0  0  0
   -0.0000   -5.1073    0.0000 S   0  0  0  0  0  0  0  0  0  0  0  0
   -1.2990   -5.8573    0.0000 C   0  0  0  0  0  0  0  0  0  0  0  0
   -1.2990   -7.3573    0.0000 C   0  0  0  0  0  0  0  0  0  0  0  0
   -2.5981   -8.1073    0.0000 O   0  0  0  0  0  0  0  0  0  0  0  0
   -2.5981   -9.6073    0.0000 C   0  0  0  0  0  0  0  0  0  0  0  0
   -3.8971  -10.3573    0.0000 C   0  0  0  0  0  0  0  0  0  0  0  0
   -3.8971  -11.8573    0.0000 C   0  0  0  0  0  0  0  0  0  0  0  0
   -2.5981  -12.6073    0.0000 C   0  0  0  0  0  0  0  0  0  0  0  0
   -1.2990  -11.8573    0.0000 C   0  0  0  0  0  0  0  0  0  0  0  0
   -0.0000  -12.6073    0.0000 C   0  0  0  0  0  0  0  0  0  0  0  0
   -1.2990  -10.3573    0.0000 C   0  0  0  0  0  0  0  0  0  0  0  0
    1.2135   -2.7256    0.0000 N   0  0  0  0  0  0  0  0  0  0  0  0
    0.7500   -1.2990    0.0000 C   0  0  0  0  0  0  0  0  0  0  0  0
    1.5000    0.0000    0.0000 C   0  0  0  0  0  0  0  0  0  0  0  0
    0.7500    1.2990    0.0000 C   0  0  0  0  0  0  0  0  0  0  0  0
   -0.7500    1.2990    0.0000 C   0  0  0  0  0  0  0  0  0  0  0  0
   -1.5000    0.0000    0.0000 C   0  0  0  0  0  0  0  0  0  0  0  0
   -0.7500   -1.2990    0.0000 C   0  0  0  0  0  0  0  0  0  0  0  0
  1  2  1  0
  2  3  1  0
  3  4  1  0
  4  5  2  0
  4  6  1  0
  6  7  1  0
  7  8  1  0
  8  9  1  0
  9 10  1  0
 10 11  1  0
 11 12  1  0
 12 13  1  0
 13 14  2  0
 14 15  1  0
 15 16  2  0
 16 17  1  0
 17 18  1  0
 17 19  2  0
  8 20  2  0
 20 21  1  0
 21 22  2  0
 22 23  1  0
 23 24  2  0
 24 25  1  0
 25 26  2  0
 26  7  1  0
 19 13  1  0
 26 21  1  0
M  END
>  <assay_chembl_id>  (383) 
CHEMBL2318841

>  <assay_description>  (383) 
Inhibition of BF3 site of androgen receptor in human LNCAP cells expressing ARR2PB after 3 days by eGFP transcriptional assay

>  <parent_molecule_chembl_id>  (383) 
CHEMBL2316562

>  <canonical_smiles>  (383) 
CCOC(=O)Cn1c(SCCOc2cccc(C)c2)nc2ccccc21

>  <standard_type>  (383) 
IC50

>  <standard_relation>  (383) 
=

>  <standard_value>  (383) 
14100.0

>  <standard_units>  (383) 
nM

>  <target_pref_name>  (383) 
Androgen Receptor

>  <target_chembl_id>  (383) 
CHEMBL1871

>  <target_organism>  (383) 
Homo sapiens

>  <pchembl_median>  (383) 
7.13

$$$$
CHEMBL2316561
     RDKit          2D

 27 29  0  0  0  0  0  0  0  0999 V2000
   -0.0000  -12.6073    0.0000 C   0  0  0  0  0  0  0  0  0  0  0  0
   -1.2990  -11.8573    0.0000 C   0  0  0  0  0  0  0  0  0  0  0  0
   -2.5981  -12.6073    0.0000 C   0  0  0  0  0  0  0  0  0  0  0  0
   -3.8971  -11.8573    0.0000 C   0  0  0  0  0  0  0  0  0  0  0  0
   -3.8971  -10.3573    0.0000 C   0  0  0  0  0  0  0  0  0  0  0  0
   -2.5981   -9.6073    0.0000 C   0  0  0  0  0  0  0  0  0  0  0  0
   -2.5981   -8.1073    0.0000 O   0  0  0  0  0  0  0  0  0  0  0  0
   -1.2990   -7.3573    0.0000 C   0  0  0  0  0  0  0  0  0  0  0  0
   -1.2990   -5.8573    0.0000 C   0  0  0  0  0  0  0  0  0  0  0  0
   -0.0000   -5.1073    0.0000 S   0  0  0  0  0  0  0  0  0  0  0  0
   -0.0000   -3.6073    0.0000 C   0  0  0  0  0  0  0  0  0  0  0  0
    1.2135   -2.7256    0.0000 N   0  0  0  0  0  0  0  0  0  0  0  0
    0.7500   -1.2990    0.0000 C   0  0  0  0  0  0  0  0  0  0  0  0
    1.5000    0.0000    0.0000 C   0  0  0  0  0  0  0  0  0  0  0  0
    0.7500    1.2990    0.0000 C   0  0  0  0  0  0  0  0  0  0  0  0
   -0.7500    1.2990    0.0000 C   0  0  0  0  0  0  0  0  0  0  0  0
   -1.5000    0.0000    0.0000 C   0  0  0  0  0  0  0  0  0  0  0  0
   -0.7500   -1.2990    0.0000 C   0  0  0  0  0  0  0  0  0  0  0  0
   -1.2135   -2.7256    0.0000 N   0  0  0  0  0  0  0  0  0  0  0  0
   -2.6401   -3.1891    0.0000 C   0  0  0  0  0  0  0  0  0  0  0  0
   -3.7548   -2.1855    0.0000 C   0  0  0  0  0  0  0  0  0  0  0  0
   -3.4430   -0.7182    0.0000 O   0  0  0  0  0  0  0  0  0  0  0  0
   -5.1814   -2.6490    0.0000 O   0  0  0  0  0  0  0  0  0  0  0  0
   -6.2961   -1.6453    0.0000 C   0  0  0  0  0  0  0  0  0  0  0  0
   -7.7227   -2.1088    0.0000 C   0  0  0  0  0  0  0  0  0  0  0  0
   -5.9843   -0.1781    0.0000 C   0  0  0  0  0  0  0  0  0  0  0  0
   -1.2990  -10.3573    0.0000 C   0  0  0  0  0  0  0  0  0  0  0  0
  1  2  1  0
  2  3  2  0
  3  4  1  0
  4  5  2  0
  5  6  1  0
  6  7  1  0
  7  8  1  0
  8  9  1  0
  9 10  1  0
 10 11  1  0
 11 12  2  0
 12 13  1  0
 13 14  2  0
 14 15  1  0
 15 16  2  0
 16 17  1  0
 17 18  2  0
 18 19  1  0
 19 20  1  0
 20 21  1  0
 21 22  2  0
 21 23  1  0
 23 24  1  0
 24 25  1  0
 24 26  1  0
  6 27  2  0
 27  2  1  0
 19 11  1  0
 18 13  1  0
M  END
>  <assay_chembl_id>  (384) 
CHEMBL2318841

>  <assay_description>  (384) 
Inhibition of BF3 site of androgen receptor in human LNCAP cells expressing ARR2PB after 3 days by eGFP transcriptional assay

>  <parent_molecule_chembl_id>  (384) 
CHEMBL2316561

>  <canonical_smiles>  (384) 
Cc1cccc(OCCSc2nc3ccccc3n2CC(=O)OC(C)C)c1

>  <standard_type>  (384) 
IC50

>  <standard_relation>  (384) 
=

>  <standard_value>  (384) 
13700.0

>  <standard_units>  (384) 
nM

>  <target_pref_name>  (384) 
Androgen Receptor

>  <target_chembl_id>  (384) 
CHEMBL1871

>  <target_organism>  (384) 
Homo sapiens

>  <pchembl_median>  (384) 
7.26

$$$$
CHEMBL2316560
     RDKit          2D

 24 26  0  0  0  0  0  0  0  0999 V2000
   -6.2961   -1.6453    0.0000 C   0  0  0  0  0  0  0  0  0  0  0  0
   -5.1814   -2.6490    0.0000 O   0  0  0  0  0  0  0  0  0  0  0  0
   -3.7548   -2.1855    0.0000 C   0  0  0  0  0  0  0  0  0  0  0  0
   -2.6401   -3.1891    0.0000 C   0  0  0  0  0  0  0  0  0  0  0  0
   -1.2135   -2.7256    0.0000 N   0  0  0  0  0  0  0  0  0  0  0  0
   -0.0000   -3.6073    0.0000 C   0  0  0  0  0  0  0  0  0  0  0  0
   -0.0000   -5.1073    0.0000 S   0  0  0  0  0  0  0  0  0  0  0  0
   -1.2990   -5.8573    0.0000 C   0  0  0  0  0  0  0  0  0  0  0  0
   -1.2990   -7.3573    0.0000 C   0  0  0  0  0  0  0  0  0  0  0  0
   -2.5981   -8.1073    0.0000 O   0  0  0  0  0  0  0  0  0  0  0  0
   -2.5981   -9.6073    0.0000 C   0  0  0  0  0  0  0  0  0  0  0  0
   -3.8971  -10.3573    0.0000 C   0  0  0  0  0  0  0  0  0  0  0  0
   -3.8971  -11.8573    0.0000 C   0  0  0  0  0  0  0  0  0  0  0  0
   -2.5981  -12.6073    0.0000 C   0  0  0  0  0  0  0  0  0  0  0  0
   -2.5981  -14.1073    0.0000 C   0  0  0  0  0  0  0  0  0  0  0  0
   -1.2990  -11.8573    0.0000 C   0  0  0  0  0  0  0  0  0  0  0  0
   -1.2990  -10.3573    0.0000 C   0  0  0  0  0  0  0  0  0  0  0  0
    1.2135   -2.7256    0.0000 N   0  0  0  0  0  0  0  0  0  0  0  0
    0.7500   -1.2990    0.0000 C   0  0  0  0  0  0  0  0  0  0  0  0
    1.5000    0.0000    0.0000 C   0  0  0  0  0  0  0  0  0  0  0  0
    0.7500    1.2990    0.0000 C   0  0  0  0  0  0  0  0  0  0  0  0
   -0.7500    1.2990    0.0000 C   0  0  0  0  0  0  0  0  0  0  0  0
   -1.5000    0.0000    0.0000 C   0  0  0  0  0  0  0  0  0  0  0  0
   -0.7500   -1.2990    0.0000 C   0  0  0  0  0  0  0  0  0  0  0  0
  1  2  1  0
  2  3  1  0
  3  4  1  0
  4  5  1  0
  5  6  1  0
  6  7  1  0
  7  8  1  0
  8  9  1  0
  9 10  1  0
 10 11  1  0
 11 12  2  0
 12 13  1  0
 13 14  2  0
 14 15  1  0
 14 16  1  0
 16 17  2  0
  6 18  2  0
 18 19  1  0
 19 20  2  0
 20 21  1  0
 21 22  2  0
 22 23  1  0
 23 24  2  0
 24  5  1  0
 17 11  1  0
 24 19  1  0
M  END
>  <assay_chembl_id>  (385) 
CHEMBL2318841

>  <assay_description>  (385) 
Inhibition of BF3 site of androgen receptor in human LNCAP cells expressing ARR2PB after 3 days by eGFP transcriptional assay

>  <parent_molecule_chembl_id>  (385) 
CHEMBL2316560

>  <canonical_smiles>  (385) 
COCCn1c(SCCOc2ccc(C)cc2)nc2ccccc21

>  <standard_type>  (385) 
IC50

>  <standard_relation>  (385) 
=

>  <standard_value>  (385) 
12700.0

>  <standard_units>  (385) 
nM

>  <target_pref_name>  (385) 
Androgen Receptor

>  <target_chembl_id>  (385) 
CHEMBL1871

>  <target_organism>  (385) 
Homo sapiens

>  <pchembl_median>  (385) 
7.11

$$$$
CHEMBL2316559
     RDKit          2D

 27 29  0  0  0  0  0  0  0  0999 V2000
   -2.5981  -14.1073    0.0000 C   0  0  0  0  0  0  0  0  0  0  0  0
   -2.5981  -12.6073    0.0000 C   0  0  0  0  0  0  0  0  0  0  0  0
   -3.8971  -11.8573    0.0000 C   0  0  0  0  0  0  0  0  0  0  0  0
   -3.8971  -10.3573    0.0000 C   0  0  0  0  0  0  0  0  0  0  0  0
   -2.5981   -9.6073    0.0000 C   0  0  0  0  0  0  0  0  0  0  0  0
   -2.5981   -8.1073    0.0000 O   0  0  0  0  0  0  0  0  0  0  0  0
   -1.2990   -7.3573    0.0000 C   0  0  0  0  0  0  0  0  0  0  0  0
   -1.2990   -5.8573    0.0000 C   0  0  0  0  0  0  0  0  0  0  0  0
   -0.0000   -5.1073    0.0000 S   0  0  0  0  0  0  0  0  0  0  0  0
   -0.0000   -3.6073    0.0000 C   0  0  0  0  0  0  0  0  0  0  0  0
    1.2135   -2.7256    0.0000 N   0  0  0  0  0  0  0  0  0  0  0  0
    0.7500   -1.2990    0.0000 C   0  0  0  0  0  0  0  0  0  0  0  0
    1.5000    0.0000    0.0000 C   0  0  0  0  0  0  0  0  0  0  0  0
    0.7500    1.2990    0.0000 C   0  0  0  0  0  0  0  0  0  0  0  0
   -0.7500    1.2990    0.0000 C   0  0  0  0  0  0  0  0  0  0  0  0
   -1.5000    0.0000    0.0000 C   0  0  0  0  0  0  0  0  0  0  0  0
   -0.7500   -1.2990    0.0000 C   0  0  0  0  0  0  0  0  0  0  0  0
   -1.2135   -2.7256    0.0000 N   0  0  0  0  0  0  0  0  0  0  0  0
   -2.6401   -3.1891    0.0000 C   0  0  0  0  0  0  0  0  0  0  0  0
   -3.7548   -2.1855    0.0000 C   0  0  0  0  0  0  0  0  0  0  0  0
   -3.4430   -0.7182    0.0000 O   0  0  0  0  0  0  0  0  0  0  0  0
   -5.1814   -2.6490    0.0000 O   0  0  0  0  0  0  0  0  0  0  0  0
   -6.2961   -1.6453    0.0000 C   0  0  0  0  0  0  0  0  0  0  0  0
   -7.7227   -2.1088    0.0000 C   0  0  0  0  0  0  0  0  0  0  0  0
   -5.9843   -0.1781    0.0000 C   0  0  0  0  0  0  0  0  0  0  0  0
   -1.2990  -10.3573    0.0000 C   0  0  0  0  0  0  0  0  0  0  0  0
   -1.2990  -11.8573    0.0000 C   0  0  0  0  0  0  0  0  0  0  0  0
  1  2  1  0
  2  3  2  0
  3  4  1  0
  4  5  2  0
  5  6  1  0
  6  7  1  0
  7  8  1  0
  8  9  1  0
  9 10  1  0
 10 11  2  0
 11 12  1  0
 12 13  2  0
 13 14  1  0
 14 15  2  0
 15 16  1  0
 16 17  2  0
 17 18  1  0
 18 19  1  0
 19 20  1  0
 20 21  2  0
 20 22  1  0
 22 23  1  0
 23 24  1  0
 23 25  1  0
  5 26  1  0
 26 27  2  0
 27  2  1  0
 18 10  1  0
 17 12  1  0
M  END
>  <assay_chembl_id>  (386) 
CHEMBL2318841

>  <assay_description>  (386) 
Inhibition of BF3 site of androgen receptor in human LNCAP cells expressing ARR2PB after 3 days by eGFP transcriptional assay

>  <parent_molecule_chembl_id>  (386) 
CHEMBL2316559

>  <canonical_smiles>  (386) 
Cc1ccc(OCCSc2nc3ccccc3n2CC(=O)OC(C)C)cc1

>  <standard_type>  (386) 
IC50

>  <standard_relation>  (386) 
=

>  <standard_value>  (386) 
11100.0

>  <standard_units>  (386) 
nM

>  <target_pref_name>  (386) 
Androgen Receptor

>  <target_chembl_id>  (386) 
CHEMBL1871

>  <target_organism>  (386) 
Homo sapiens

>  <pchembl_median>  (386) 
5.0

$$$$
CHEMBL1738936
     RDKit          2D

 29 32  0  0  0  0  0  0  0  0999 V2000
   -9.6403    1.3658    0.0000 C   0  0  0  0  0  0  0  0  0  0  0  0
   -8.5256    0.3621    0.0000 C   0  0  0  0  0  0  0  0  0  0  0  0
   -7.0990    0.8256    0.0000 C   0  0  0  0  0  0  0  0  0  0  0  0
   -5.9843   -0.1781    0.0000 C   0  0  0  0  0  0  0  0  0  0  0  0
   -6.2961   -1.6453    0.0000 C   0  0  0  0  0  0  0  0  0  0  0  0
   -5.1814   -2.6490    0.0000 O   0  0  0  0  0  0  0  0  0  0  0  0
   -3.7548   -2.1855    0.0000 C   0  0  0  0  0  0  0  0  0  0  0  0
   -2.6401   -3.1891    0.0000 C   0  0  0  0  0  0  0  0  0  0  0  0
   -1.2135   -2.7256    0.0000 N   0  0  0  0  0  0  0  0  0  0  0  0
   -0.0000   -3.6073    0.0000 C   0  0  0  0  0  0  0  0  0  0  0  0
   -0.0000   -5.1073    0.0000 S   0  0  0  0  0  0  0  0  0  0  0  0
   -1.2990   -5.8573    0.0000 C   0  0  0  0  0  0  0  0  0  0  0  0
   -1.2990   -7.3573    0.0000 C   0  0  0  0  0  0  0  0  0  0  0  0
   -2.5981   -8.1073    0.0000 O   0  0  0  0  0  0  0  0  0  0  0  0
   -2.5981   -9.6073    0.0000 C   0  0  0  0  0  0  0  0  0  0  0  0
   -3.8971  -10.3573    0.0000 C   0  0  0  0  0  0  0  0  0  0  0  0
   -3.8971  -11.8573    0.0000 C   0  0  0  0  0  0  0  0  0  0  0  0
   -2.5981  -12.6073    0.0000 C   0  0  0  0  0  0  0  0  0  0  0  0
   -1.2990  -11.8573    0.0000 C   0  0  0  0  0  0  0  0  0  0  0  0
   -1.2990  -10.3573    0.0000 C   0  0  0  0  0  0  0  0  0  0  0  0
    1.2135   -2.7256    0.0000 N   0  0  0  0  0  0  0  0  0  0  0  0
    0.7500   -1.2990    0.0000 C   0  0  0  0  0  0  0  0  0  0  0  0
    1.5000    0.0000    0.0000 C   0  0  0  0  0  0  0  0  0  0  0  0
    0.7500    1.2990    0.0000 C   0  0  0  0  0  0  0  0  0  0  0  0
   -0.7500    1.2990    0.0000 C   0  0  0  0  0  0  0  0  0  0  0  0
   -1.5000    0.0000    0.0000 C   0  0  0  0  0  0  0  0  0  0  0  0
   -0.7500   -1.2990    0.0000 C   0  0  0  0  0  0  0  0  0  0  0  0
   -7.7227   -2.1088    0.0000 C   0  0  0  0  0  0  0  0  0  0  0  0
   -8.8374   -1.1051    0.0000 C   0  0  0  0  0  0  0  0  0  0  0  0
  1  2  1  0
  2  3  2  0
  3  4  1  0
  4  5  2  0
  5  6  1  0
  6  7  1  0
  7  8  1  0
  8  9  1  0
  9 10  1  0
 10 11  1  0
 11 12  1  0
 12 13  1  0
 13 14  1  0
 14 15  1  0
 15 16  2  0
 16 17  1  0
 17 18  2  0
 18 19  1  0
 19 20  2  0
 10 21  2  0
 21 22  1  0
 22 23  2  0
 23 24  1  0
 24 25  2  0
 25 26  1  0
 26 27  2  0
  5 28  1  0
 28 29  2  0
 29  2  1  0
 27  9  1  0
 20 15  1  0
 27 22  1  0
M  END
>  <assay_chembl_id>  (387) 
CHEMBL2318841

>  <assay_description>  (387) 
Inhibition of BF3 site of androgen receptor in human LNCAP cells expressing ARR2PB after 3 days by eGFP transcriptional assay

>  <parent_molecule_chembl_id>  (387) 
CHEMBL1738936

>  <canonical_smiles>  (387) 
Cc1ccc(OCCn2c(SCCOc3ccccc3)nc3ccccc32)cc1

>  <standard_type>  (387) 
IC50

>  <standard_relation>  (387) 
=

>  <standard_value>  (387) 
13100.0

>  <standard_units>  (387) 
nM

>  <target_pref_name>  (387) 
Androgen Receptor

>  <target_chembl_id>  (387) 
CHEMBL1871

>  <target_organism>  (387) 
Homo sapiens

>  <pchembl_median>  (387) 
7.58

$$$$
CHEMBL2334724
     RDKit          2D

 33 34  0  0  0  0  0  0  0  0999 V2000
    0.2010   -4.8481    0.0000 C   0  0  0  0  0  0  0  0  0  0  0  0
    0.2010   -3.3481    0.0000 C   0  0  0  0  0  0  0  0  0  0  0  0
    1.5000   -2.5981    0.0000 Si  0  0  0  0  0  4  0  0  0  0  0  0
    2.7990   -1.8481    0.0000 C   0  0  0  0  0  0  0  0  0  0  0  0
    4.0981   -2.5981    0.0000 C   0  0  0  0  0  0  0  0  0  0  0  0
    0.7500   -1.2990    0.0000 C   0  0  0  0  0  0  0  0  0  0  0  0
    1.5000    0.0000    0.0000 C   0  0  0  0  0  0  0  0  0  0  0  0
    0.7500    1.2990    0.0000 C   0  0  0  0  0  0  0  0  0  0  0  0
   -0.7500    1.2990    0.0000 C   0  0  0  0  0  0  0  0  0  0  0  0
   -1.5000    2.5981    0.0000 O   0  0  0  0  0  0  0  0  0  0  0  0
   -0.7500    3.8971    0.0000 C   0  0  0  0  0  0  0  0  0  0  0  0
   -1.5000    5.1962    0.0000 C   0  0  0  0  0  0  0  0  0  0  0  0
   -3.0000    5.1962    0.0000 O   0  0  0  0  0  0  0  0  0  0  0  0
   -0.7500    6.4952    0.0000 C   0  0  0  0  0  0  0  0  0  0  0  0
   -2.0490    7.2452    0.0000 C   0  0  0  0  0  0  0  0  0  0  0  0
    0.5490    5.7452    0.0000 C   0  0  0  0  0  0  0  0  0  0  0  0
    0.0000    7.7942    0.0000 C   0  0  0  0  0  0  0  0  0  0  0  0
   -1.5000    0.0000    0.0000 C   0  0  0  0  0  0  0  0  0  0  0  0
   -3.0000    0.0000    0.0000 C   0  0  0  0  0  0  0  0  0  0  0  0
   -0.7500   -1.2990    0.0000 C   0  0  0  0  0  0  0  0  0  0  0  0
    2.2500   -3.8971    0.0000 C   0  0  0  0  0  0  0  0  0  0  0  0
    1.5000   -5.1962    0.0000 C   0  0  0  0  0  0  0  0  0  0  0  0
    2.2500   -6.4952    0.0000 C   0  0  0  0  0  0  0  0  0  0  0  0
    3.7500   -6.4952    0.0000 C   0  0  0  0  0  0  0  0  0  0  0  0
    4.5000   -7.7942    0.0000 O   0  0  0  0  0  0  0  0  0  0  0  0
    3.7500   -9.0933    0.0000 C   0  0  0  0  0  0  0  0  0  0  0  0
    4.5000  -10.3923    0.0000 C   0  0  0  0  0  0  0  0  0  0  0  0
    6.0000  -10.3923    0.0000 O   0  0  0  0  0  0  0  0  0  0  0  0
    3.7500  -11.6913    0.0000 C   0  0  0  0  0  0  0  0  0  0  0  0
    4.5000  -12.9904    0.0000 O   0  0  0  0  0  0  0  0  0  0  0  0
    4.5000   -5.1962    0.0000 C   0  0  0  0  0  0  0  0  0  0  0  0
    6.0000   -5.1962    0.0000 C   0  0  0  0  0  0  0  0  0  0  0  0
    3.7500   -3.8971    0.0000 C   0  0  0  0  0  0  0  0  0  0  0  0
  1  2  1  0
  2  3  1  0
  3  4  1  0
  4  5  1  0
  3  6  1  0
  6  7  2  0
  7  8  1  0
  8  9  2  0
  9 10  1  0
 10 11  1  0
 11 12  1  0
 12 13  2  0
 12 14  1  0
 14 15  1  0
 14 16  1  0
 14 17  1  0
  9 18  1  0
 18 19  1  0
 18 20  2  0
  3 21  1  0
 21 22  2  0
 22 23  1  0
 23 24  2  0
 24 25  1  0
 25 26  1  0
 26 27  1  0
 27 28  1  6
 27 29  1  0
 29 30  1  0
 24 31  1  0
 31 32  1  0
 31 33  2  0
 20  6  1  0
 33 21  1  0
M  END
>  <assay_chembl_id>  (388) 
CHEMBL2343831

>  <assay_description>  (388) 
Antagonist activity at human androgen receptor expressed in HEK293 cells assessed as inhibition of transcriptional activity by luciferase and beta-galactosidase reporter gene assay

>  <parent_molecule_chembl_id>  (388) 
CHEMBL2334724

>  <canonical_smiles>  (388) 
CC[Si](CC)(c1ccc(OCC(=O)C(C)(C)C)c(C)c1)c1ccc(OC[C@H](O)CO)c(C)c1

>  <standard_type>  (388) 
IC50

>  <standard_relation>  (388) 
=

>  <standard_value>  (388) 
4000.0

>  <standard_units>  (388) 
nM

>  <target_pref_name>  (388) 
Androgen Receptor

>  <target_chembl_id>  (388) 
CHEMBL1871

>  <target_organism>  (388) 
Homo sapiens

>  <pchembl_median>  (388) 
6.48

$$$$
CHEMBL2334345
     RDKit          2D

 33 34  0  0  0  0  0  0  0  0999 V2000
    4.0981   -2.5981    0.0000 C   0  0  0  0  0  0  0  0  0  0  0  0
    2.7990   -1.8481    0.0000 C   0  0  0  0  0  0  0  0  0  0  0  0
    1.5000   -2.5981    0.0000 Si  0  0  0  0  0  4  0  0  0  0  0  0
    0.2010   -3.3481    0.0000 C   0  0  0  0  0  0  0  0  0  0  0  0
    0.2010   -4.8481    0.0000 C   0  0  0  0  0  0  0  0  0  0  0  0
    0.7500   -1.2990    0.0000 C   0  0  0  0  0  0  0  0  0  0  0  0
    1.5000    0.0000    0.0000 C   0  0  0  0  0  0  0  0  0  0  0  0
    0.7500    1.2990    0.0000 C   0  0  0  0  0  0  0  0  0  0  0  0
   -0.7500    1.2990    0.0000 C   0  0  0  0  0  0  0  0  0  0  0  0
   -1.5000    2.5981    0.0000 O   0  0  0  0  0  0  0  0  0  0  0  0
   -0.7500    3.8971    0.0000 C   0  0  0  0  0  0  0  0  0  0  0  0
   -1.5000    5.1962    0.0000 C   0  0  0  0  0  0  0  0  0  0  0  0
   -3.0000    5.1962    0.0000 O   0  0  0  0  0  0  0  0  0  0  0  0
   -0.7500    6.4952    0.0000 C   0  0  0  0  0  0  0  0  0  0  0  0
   -2.0490    7.2452    0.0000 C   0  0  0  0  0  0  0  0  0  0  0  0
    0.5490    5.7452    0.0000 C   0  0  0  0  0  0  0  0  0  0  0  0
    0.0000    7.7942    0.0000 C   0  0  0  0  0  0  0  0  0  0  0  0
   -1.5000    0.0000    0.0000 C   0  0  0  0  0  0  0  0  0  0  0  0
   -3.0000    0.0000    0.0000 C   0  0  0  0  0  0  0  0  0  0  0  0
   -0.7500   -1.2990    0.0000 C   0  0  0  0  0  0  0  0  0  0  0  0
    2.2500   -3.8971    0.0000 C   0  0  0  0  0  0  0  0  0  0  0  0
    1.5000   -5.1962    0.0000 C   0  0  0  0  0  0  0  0  0  0  0  0
    2.2500   -6.4952    0.0000 C   0  0  0  0  0  0  0  0  0  0  0  0
    3.7500   -6.4952    0.0000 C   0  0  0  0  0  0  0  0  0  0  0  0
    4.5000   -7.7942    0.0000 O   0  0  0  0  0  0  0  0  0  0  0  0
    3.7500   -9.0933    0.0000 C   0  0  0  0  0  0  0  0  0  0  0  0
    4.5000  -10.3923    0.0000 C   0  0  0  0  0  0  0  0  0  0  0  0
    6.0000  -10.3923    0.0000 O   0  0  0  0  0  0  0  0  0  0  0  0
    3.7500  -11.6913    0.0000 C   0  0  0  0  0  0  0  0  0  0  0  0
    4.5000  -12.9904    0.0000 O   0  0  0  0  0  0  0  0  0  0  0  0
    4.5000   -5.1962    0.0000 C   0  0  0  0  0  0  0  0  0  0  0  0
    6.0000   -5.1962    0.0000 C   0  0  0  0  0  0  0  0  0  0  0  0
    3.7500   -3.8971    0.0000 C   0  0  0  0  0  0  0  0  0  0  0  0
  1  2  1  0
  2  3  1  0
  3  4  1  0
  4  5  1  0
  3  6  1  0
  6  7  2  0
  7  8  1  0
  8  9  2  0
  9 10  1  0
 10 11  1  0
 11 12  1  0
 12 13  1  1
 12 14  1  0
 14 15  1  0
 14 16  1  0
 14 17  1  0
  9 18  1  0
 18 19  1  0
 18 20  2  0
  3 21  1  0
 21 22  2  0
 22 23  1  0
 23 24  2  0
 24 25  1  0
 25 26  1  0
 26 27  1  0
 27 28  1  6
 27 29  1  0
 29 30  1  0
 24 31  1  0
 31 32  1  0
 31 33  2  0
 20  6  1  0
 33 21  1  0
M  END
>  <assay_chembl_id>  (389) 
CHEMBL2343831

>  <assay_description>  (389) 
Antagonist activity at human androgen receptor expressed in HEK293 cells assessed as inhibition of transcriptional activity by luciferase and beta-galactosidase reporter gene assay

>  <parent_molecule_chembl_id>  (389) 
CHEMBL2334345

>  <canonical_smiles>  (389) 
CC[Si](CC)(c1ccc(OC[C@@H](O)C(C)(C)C)c(C)c1)c1ccc(OC[C@H](O)CO)c(C)c1

>  <standard_type>  (389) 
IC50

>  <standard_relation>  (389) 
=

>  <standard_value>  (389) 
7400.0

>  <standard_units>  (389) 
nM

>  <target_pref_name>  (389) 
Androgen Receptor

>  <target_chembl_id>  (389) 
CHEMBL1871

>  <target_organism>  (389) 
Homo sapiens

>  <pchembl_median>  (389) 
5.985

$$$$
CHEMBL2334344
     RDKit          2D

 33 34  0  0  0  0  0  0  0  0999 V2000
    0.2010   -4.8481    0.0000 C   0  0  0  0  0  0  0  0  0  0  0  0
    0.2010   -3.3481    0.0000 C   0  0  0  0  0  0  0  0  0  0  0  0
    1.5000   -2.5981    0.0000 Si  0  0  0  0  0  4  0  0  0  0  0  0
    2.7990   -1.8481    0.0000 C   0  0  0  0  0  0  0  0  0  0  0  0
    4.0981   -2.5981    0.0000 C   0  0  0  0  0  0  0  0  0  0  0  0
    0.7500   -1.2990    0.0000 C   0  0  0  0  0  0  0  0  0  0  0  0
    1.5000    0.0000    0.0000 C   0  0  0  0  0  0  0  0  0  0  0  0
    0.7500    1.2990    0.0000 C   0  0  0  0  0  0  0  0  0  0  0  0
   -0.7500    1.2990    0.0000 C   0  0  0  0  0  0  0  0  0  0  0  0
   -1.5000    2.5981    0.0000 O   0  0  0  0  0  0  0  0  0  0  0  0
   -0.7500    3.8971    0.0000 C   0  0  0  0  0  0  0  0  0  0  0  0
   -1.5000    5.1962    0.0000 C   0  0  0  0  0  0  0  0  0  0  0  0
   -3.0000    5.1962    0.0000 O   0  0  0  0  0  0  0  0  0  0  0  0
   -0.7500    6.4952    0.0000 C   0  0  0  0  0  0  0  0  0  0  0  0
   -1.5000    7.7942    0.0000 O   0  0  0  0  0  0  0  0  0  0  0  0
   -1.5000    0.0000    0.0000 C   0  0  0  0  0  0  0  0  0  0  0  0
   -3.0000    0.0000    0.0000 C   0  0  0  0  0  0  0  0  0  0  0  0
   -0.7500   -1.2990    0.0000 C   0  0  0  0  0  0  0  0  0  0  0  0
    2.2500   -3.8971    0.0000 C   0  0  0  0  0  0  0  0  0  0  0  0
    1.5000   -5.1962    0.0000 C   0  0  0  0  0  0  0  0  0  0  0  0
    2.2500   -6.4952    0.0000 C   0  0  0  0  0  0  0  0  0  0  0  0
    3.7500   -6.4952    0.0000 C   0  0  0  0  0  0  0  0  0  0  0  0
    4.5000   -7.7942    0.0000 O   0  0  0  0  0  0  0  0  0  0  0  0
    3.7500   -9.0933    0.0000 C   0  0  0  0  0  0  0  0  0  0  0  0
    4.5000  -10.3923    0.0000 C   0  0  0  0  0  0  0  0  0  0  0  0
    6.0000  -10.3923    0.0000 O   0  0  0  0  0  0  0  0  0  0  0  0
    3.7500  -11.6913    0.0000 C   0  0  0  0  0  0  0  0  0  0  0  0
    5.0490  -12.4413    0.0000 C   0  0  0  0  0  0  0  0  0  0  0  0
    2.4510  -10.9413    0.0000 C   0  0  0  0  0  0  0  0  0  0  0  0
    3.0000  -12.9904    0.0000 C   0  0  0  0  0  0  0  0  0  0  0  0
    4.5000   -5.1962    0.0000 C   0  0  0  0  0  0  0  0  0  0  0  0
    6.0000   -5.1962    0.0000 C   0  0  0  0  0  0  0  0  0  0  0  0
    3.7500   -3.8971    0.0000 C   0  0  0  0  0  0  0  0  0  0  0  0
  1  2  1  0
  2  3  1  0
  3  4  1  0
  4  5  1  0
  3  6  1  0
  6  7  2  0
  7  8  1  0
  8  9  2  0
  9 10  1  0
 10 11  1  0
 11 12  1  0
 12 13  1  6
 12 14  1  0
 14 15  1  0
  9 16  1  0
 16 17  1  0
 16 18  2  0
  3 19  1  0
 19 20  2  0
 20 21  1  0
 21 22  2  0
 22 23  1  0
 23 24  1  0
 24 25  1  0
 25 26  1  6
 25 27  1  0
 27 28  1  0
 27 29  1  0
 27 30  1  0
 22 31  1  0
 31 32  1  0
 31 33  2  0
 18  6  1  0
 33 19  1  0
M  END
>  <assay_chembl_id>  (390) 
CHEMBL2343831

>  <assay_description>  (390) 
Antagonist activity at human androgen receptor expressed in HEK293 cells assessed as inhibition of transcriptional activity by luciferase and beta-galactosidase reporter gene assay

>  <parent_molecule_chembl_id>  (390) 
CHEMBL2334344

>  <canonical_smiles>  (390) 
CC[Si](CC)(c1ccc(OC[C@H](O)CO)c(C)c1)c1ccc(OC[C@H](O)C(C)(C)C)c(C)c1

>  <standard_type>  (390) 
IC50

>  <standard_relation>  (390) 
=

>  <standard_value>  (390) 
6700.0

>  <standard_units>  (390) 
nM

>  <target_pref_name>  (390) 
Androgen Receptor

>  <target_chembl_id>  (390) 
CHEMBL1871

>  <target_organism>  (390) 
Homo sapiens

>  <pchembl_median>  (390) 
4.92

$$$$
CHEMBL2334343
     RDKit          2D

 33 34  0  0  0  0  0  0  0  0999 V2000
    0.2010   -4.8481    0.0000 C   0  0  0  0  0  0  0  0  0  0  0  0
    0.2010   -3.3481    0.0000 C   0  0  0  0  0  0  0  0  0  0  0  0
    1.5000   -2.5981    0.0000 Si  0  0  0  0  0  4  0  0  0  0  0  0
    2.7990   -1.8481    0.0000 C   0  0  0  0  0  0  0  0  0  0  0  0
    4.0981   -2.5981    0.0000 C   0  0  0  0  0  0  0  0  0  0  0  0
    0.7500   -1.2990    0.0000 C   0  0  0  0  0  0  0  0  0  0  0  0
    1.5000    0.0000    0.0000 C   0  0  0  0  0  0  0  0  0  0  0  0
    0.7500    1.2990    0.0000 C   0  0  0  0  0  0  0  0  0  0  0  0
   -0.7500    1.2990    0.0000 C   0  0  0  0  0  0  0  0  0  0  0  0
   -1.5000    2.5981    0.0000 O   0  0  0  0  0  0  0  0  0  0  0  0
   -0.7500    3.8971    0.0000 C   0  0  0  0  0  0  0  0  0  0  0  0
   -1.5000    5.1962    0.0000 C   0  0  0  0  0  0  0  0  0  0  0  0
   -3.0000    5.1962    0.0000 O   0  0  0  0  0  0  0  0  0  0  0  0
   -0.7500    6.4952    0.0000 C   0  0  0  0  0  0  0  0  0  0  0  0
   -1.5000    7.7942    0.0000 O   0  0  0  0  0  0  0  0  0  0  0  0
   -1.5000    0.0000    0.0000 C   0  0  0  0  0  0  0  0  0  0  0  0
   -3.0000    0.0000    0.0000 C   0  0  0  0  0  0  0  0  0  0  0  0
   -0.7500   -1.2990    0.0000 C   0  0  0  0  0  0  0  0  0  0  0  0
    2.2500   -3.8971    0.0000 C   0  0  0  0  0  0  0  0  0  0  0  0
    1.5000   -5.1962    0.0000 C   0  0  0  0  0  0  0  0  0  0  0  0
    2.2500   -6.4952    0.0000 C   0  0  0  0  0  0  0  0  0  0  0  0
    3.7500   -6.4952    0.0000 C   0  0  0  0  0  0  0  0  0  0  0  0
    4.5000   -7.7942    0.0000 O   0  0  0  0  0  0  0  0  0  0  0  0
    3.7500   -9.0933    0.0000 C   0  0  0  0  0  0  0  0  0  0  0  0
    4.5000  -10.3923    0.0000 C   0  0  0  0  0  0  0  0  0  0  0  0
    6.0000  -10.3923    0.0000 O   0  0  0  0  0  0  0  0  0  0  0  0
    3.7500  -11.6913    0.0000 C   0  0  0  0  0  0  0  0  0  0  0  0
    5.0490  -12.4413    0.0000 C   0  0  0  0  0  0  0  0  0  0  0  0
    2.4510  -10.9413    0.0000 C   0  0  0  0  0  0  0  0  0  0  0  0
    3.0000  -12.9904    0.0000 C   0  0  0  0  0  0  0  0  0  0  0  0
    4.5000   -5.1962    0.0000 C   0  0  0  0  0  0  0  0  0  0  0  0
    6.0000   -5.1962    0.0000 C   0  0  0  0  0  0  0  0  0  0  0  0
    3.7500   -3.8971    0.0000 C   0  0  0  0  0  0  0  0  0  0  0  0
  1  2  1  0
  2  3  1  0
  3  4  1  0
  4  5  1  0
  3  6  1  0
  6  7  2  0
  7  8  1  0
  8  9  2  0
  9 10  1  0
 10 11  1  0
 11 12  1  0
 12 13  1  1
 12 14  1  0
 14 15  1  0
  9 16  1  0
 16 17  1  0
 16 18  2  0
  3 19  1  0
 19 20  2  0
 20 21  1  0
 21 22  2  0
 22 23  1  0
 23 24  1  0
 24 25  1  0
 25 26  1  1
 25 27  1  0
 27 28  1  0
 27 29  1  0
 27 30  1  0
 22 31  1  0
 31 32  1  0
 31 33  2  0
 18  6  1  0
 33 19  1  0
M  END
>  <assay_chembl_id>  (391) 
CHEMBL2343831

>  <assay_description>  (391) 
Antagonist activity at human androgen receptor expressed in HEK293 cells assessed as inhibition of transcriptional activity by luciferase and beta-galactosidase reporter gene assay

>  <parent_molecule_chembl_id>  (391) 
CHEMBL2334343

>  <canonical_smiles>  (391) 
CC[Si](CC)(c1ccc(OC[C@@H](O)CO)c(C)c1)c1ccc(OC[C@@H](O)C(C)(C)C)c(C)c1

>  <standard_type>  (391) 
IC50

>  <standard_relation>  (391) 
=

>  <standard_value>  (391) 
8300.0

>  <standard_units>  (391) 
nM

>  <target_pref_name>  (391) 
Androgen Receptor

>  <target_chembl_id>  (391) 
CHEMBL1871

>  <target_organism>  (391) 
Homo sapiens

>  <pchembl_median>  (391) 
6.86

$$$$
CHEMBL2334342
     RDKit          2D

 33 34  0  0  0  0  0  0  0  0999 V2000
    0.2010   -4.8481    0.0000 C   0  0  0  0  0  0  0  0  0  0  0  0
    0.2010   -3.3481    0.0000 C   0  0  0  0  0  0  0  0  0  0  0  0
    1.5000   -2.5981    0.0000 Si  0  0  0  0  0  4  0  0  0  0  0  0
    2.7990   -1.8481    0.0000 C   0  0  0  0  0  0  0  0  0  0  0  0
    4.0981   -2.5981    0.0000 C   0  0  0  0  0  0  0  0  0  0  0  0
    0.7500   -1.2990    0.0000 C   0  0  0  0  0  0  0  0  0  0  0  0
    1.5000    0.0000    0.0000 C   0  0  0  0  0  0  0  0  0  0  0  0
    0.7500    1.2990    0.0000 C   0  0  0  0  0  0  0  0  0  0  0  0
   -0.7500    1.2990    0.0000 C   0  0  0  0  0  0  0  0  0  0  0  0
   -1.5000    2.5981    0.0000 O   0  0  0  0  0  0  0  0  0  0  0  0
   -0.7500    3.8971    0.0000 C   0  0  0  0  0  0  0  0  0  0  0  0
   -1.5000    5.1962    0.0000 C   0  0  0  0  0  0  0  0  0  0  0  0
   -3.0000    5.1962    0.0000 O   0  0  0  0  0  0  0  0  0  0  0  0
   -0.7500    6.4952    0.0000 C   0  0  0  0  0  0  0  0  0  0  0  0
   -1.5000    7.7942    0.0000 O   0  0  0  0  0  0  0  0  0  0  0  0
   -1.5000    0.0000    0.0000 C   0  0  0  0  0  0  0  0  0  0  0  0
   -3.0000    0.0000    0.0000 C   0  0  0  0  0  0  0  0  0  0  0  0
   -0.7500   -1.2990    0.0000 C   0  0  0  0  0  0  0  0  0  0  0  0
    2.2500   -3.8971    0.0000 C   0  0  0  0  0  0  0  0  0  0  0  0
    1.5000   -5.1962    0.0000 C   0  0  0  0  0  0  0  0  0  0  0  0
    2.2500   -6.4952    0.0000 C   0  0  0  0  0  0  0  0  0  0  0  0
    3.7500   -6.4952    0.0000 C   0  0  0  0  0  0  0  0  0  0  0  0
    4.5000   -7.7942    0.0000 O   0  0  0  0  0  0  0  0  0  0  0  0
    3.7500   -9.0933    0.0000 C   0  0  0  0  0  0  0  0  0  0  0  0
    4.5000  -10.3923    0.0000 C   0  0  0  0  0  0  0  0  0  0  0  0
    6.0000  -10.3923    0.0000 O   0  0  0  0  0  0  0  0  0  0  0  0
    3.7500  -11.6913    0.0000 C   0  0  0  0  0  0  0  0  0  0  0  0
    5.0490  -12.4413    0.0000 C   0  0  0  0  0  0  0  0  0  0  0  0
    2.4510  -10.9413    0.0000 C   0  0  0  0  0  0  0  0  0  0  0  0
    3.0000  -12.9904    0.0000 C   0  0  0  0  0  0  0  0  0  0  0  0
    4.5000   -5.1962    0.0000 C   0  0  0  0  0  0  0  0  0  0  0  0
    6.0000   -5.1962    0.0000 C   0  0  0  0  0  0  0  0  0  0  0  0
    3.7500   -3.8971    0.0000 C   0  0  0  0  0  0  0  0  0  0  0  0
  1  2  1  0
  2  3  1  0
  3  4  1  0
  4  5  1  0
  3  6  1  0
  6  7  2  0
  7  8  1  0
  8  9  2  0
  9 10  1  0
 10 11  1  0
 11 12  1  0
 12 13  1  1
 12 14  1  0
 14 15  1  0
  9 16  1  0
 16 17  1  0
 16 18  2  0
  3 19  1  0
 19 20  2  0
 20 21  1  0
 21 22  2  0
 22 23  1  0
 23 24  1  0
 24 25  1  0
 25 26  1  6
 25 27  1  0
 27 28  1  0
 27 29  1  0
 27 30  1  0
 22 31  1  0
 31 32  1  0
 31 33  2  0
 18  6  1  0
 33 19  1  0
M  END
>  <assay_chembl_id>  (392) 
CHEMBL2343831

>  <assay_description>  (392) 
Antagonist activity at human androgen receptor expressed in HEK293 cells assessed as inhibition of transcriptional activity by luciferase and beta-galactosidase reporter gene assay

>  <parent_molecule_chembl_id>  (392) 
CHEMBL2334342

>  <canonical_smiles>  (392) 
CC[Si](CC)(c1ccc(OC[C@@H](O)CO)c(C)c1)c1ccc(OC[C@H](O)C(C)(C)C)c(C)c1

>  <standard_type>  (392) 
IC50

>  <standard_relation>  (392) 
=

>  <standard_value>  (392) 
5800.0

>  <standard_units>  (392) 
nM

>  <target_pref_name>  (392) 
Androgen Receptor

>  <target_chembl_id>  (392) 
CHEMBL1871

>  <target_organism>  (392) 
Homo sapiens

>  <pchembl_median>  (392) 
6.11

$$$$
CHEMBL1783642
     RDKit          2D

 35 36  0  0  0  0  0  0  0  0999 V2000
    4.0981   -2.5981    0.0000 C   0  0  0  0  0  0  0  0  0  0  0  0
    2.7990   -1.8481    0.0000 C   0  0  0  0  0  0  0  0  0  0  0  0
    1.5000   -2.5981    0.0000 Si  0  0  0  0  0  4  0  0  0  0  0  0
    0.2010   -3.3481    0.0000 C   0  0  0  0  0  0  0  0  0  0  0  0
    0.2010   -4.8481    0.0000 C   0  0  0  0  0  0  0  0  0  0  0  0
    0.7500   -1.2990    0.0000 C   0  0  0  0  0  0  0  0  0  0  0  0
    1.5000    0.0000    0.0000 C   0  0  0  0  0  0  0  0  0  0  0  0
    0.7500    1.2990    0.0000 C   0  0  0  0  0  0  0  0  0  0  0  0
   -0.7500    1.2990    0.0000 C   0  0  0  0  0  0  0  0  0  0  0  0
   -1.5000    2.5981    0.0000 O   0  0  0  0  0  0  0  0  0  0  0  0
   -0.7500    3.8971    0.0000 C   0  0  0  0  0  0  0  0  0  0  0  0
   -1.5000    5.1962    0.0000 C   0  0  0  0  0  0  0  0  0  0  0  0
   -3.0000    5.1962    0.0000 O   0  0  0  0  0  0  0  0  0  0  0  0
   -0.7500    6.4952    0.0000 C   0  0  0  0  0  0  0  0  0  0  0  0
   -2.0490    7.2452    0.0000 C   0  0  0  0  0  0  0  0  0  0  0  0
    0.5490    5.7452    0.0000 C   0  0  0  0  0  0  0  0  0  0  0  0
    0.0000    7.7942    0.0000 C   0  0  0  0  0  0  0  0  0  0  0  0
   -1.5000    0.0000    0.0000 C   0  0  0  0  0  0  0  0  0  0  0  0
   -3.0000    0.0000    0.0000 C   0  0  0  0  0  0  0  0  0  0  0  0
   -0.7500   -1.2990    0.0000 C   0  0  0  0  0  0  0  0  0  0  0  0
    2.2500   -3.8971    0.0000 C   0  0  0  0  0  0  0  0  0  0  0  0
    1.5000   -5.1962    0.0000 C   0  0  0  0  0  0  0  0  0  0  0  0
    2.2500   -6.4952    0.0000 C   0  0  0  0  0  0  0  0  0  0  0  0
    3.7500   -6.4952    0.0000 C   0  0  0  0  0  0  0  0  0  0  0  0
    4.5000   -7.7942    0.0000 O   0  0  0  0  0  0  0  0  0  0  0  0
    3.7500   -9.0933    0.0000 C   0  0  0  0  0  0  0  0  0  0  0  0
    4.5000  -10.3923    0.0000 C   0  0  0  0  0  0  0  0  0  0  0  0
    6.0000  -10.3923    0.0000 O   0  0  0  0  0  0  0  0  0  0  0  0
    3.7500  -11.6913    0.0000 C   0  0  0  0  0  0  0  0  0  0  0  0
    5.0490  -12.4413    0.0000 C   0  0  0  0  0  0  0  0  0  0  0  0
    2.4510  -10.9413    0.0000 C   0  0  0  0  0  0  0  0  0  0  0  0
    3.0000  -12.9904    0.0000 C   0  0  0  0  0  0  0  0  0  0  0  0
    4.5000   -5.1962    0.0000 C   0  0  0  0  0  0  0  0  0  0  0  0
    6.0000   -5.1962    0.0000 C   0  0  0  0  0  0  0  0  0  0  0  0
    3.7500   -3.8971    0.0000 C   0  0  0  0  0  0  0  0  0  0  0  0
  1  2  1  0
  2  3  1  0
  3  4  1  0
  4  5  1  0
  3  6  1  0
  6  7  2  0
  7  8  1  0
  8  9  2  0
  9 10  1  0
 10 11  1  0
 11 12  1  0
 12 13  2  0
 12 14  1  0
 14 15  1  0
 14 16  1  0
 14 17  1  0
  9 18  1  0
 18 19  1  0
 18 20  2  0
  3 21  1  0
 21 22  2  0
 22 23  1  0
 23 24  2  0
 24 25  1  0
 25 26  1  0
 26 27  1  0
 27 28  2  0
 27 29  1  0
 29 30  1  0
 29 31  1  0
 29 32  1  0
 24 33  1  0
 33 34  1  0
 33 35  2  0
 20  6  1  0
 35 21  1  0
M  END
>  <assay_chembl_id>  (393) 
CHEMBL2343831

>  <assay_description>  (393) 
Antagonist activity at human androgen receptor expressed in HEK293 cells assessed as inhibition of transcriptional activity by luciferase and beta-galactosidase reporter gene assay

>  <parent_molecule_chembl_id>  (393) 
CHEMBL1783642

>  <canonical_smiles>  (393) 
CC[Si](CC)(c1ccc(OCC(=O)C(C)(C)C)c(C)c1)c1ccc(OCC(=O)C(C)(C)C)c(C)c1

>  <standard_type>  (393) 
IC50

>  <standard_relation>  (393) 
=

>  <standard_value>  (393) 
6200.0

>  <standard_units>  (393) 
nM

>  <target_pref_name>  (393) 
Androgen Receptor

>  <target_chembl_id>  (393) 
CHEMBL1871

>  <target_organism>  (393) 
Homo sapiens

>  <pchembl_median>  (393) 
7.89

$$$$
CHEMBL2334339
     RDKit          2D

 33 34  0  0  0  0  0  0  0  0999 V2000
    0.2010   -4.8481    0.0000 C   0  0  0  0  0  0  0  0  0  0  0  0
    0.2010   -3.3481    0.0000 C   0  0  0  0  0  0  0  0  0  0  0  0
    1.5000   -2.5981    0.0000 Si  0  0  0  0  0  4  0  0  0  0  0  0
    2.7990   -1.8481    0.0000 C   0  0  0  0  0  0  0  0  0  0  0  0
    4.0981   -2.5981    0.0000 C   0  0  0  0  0  0  0  0  0  0  0  0
    0.7500   -1.2990    0.0000 C   0  0  0  0  0  0  0  0  0  0  0  0
    1.5000    0.0000    0.0000 C   0  0  0  0  0  0  0  0  0  0  0  0
    0.7500    1.2990    0.0000 C   0  0  0  0  0  0  0  0  0  0  0  0
   -0.7500    1.2990    0.0000 C   0  0  0  0  0  0  0  0  0  0  0  0
   -1.5000    2.5981    0.0000 O   0  0  0  0  0  0  0  0  0  0  0  0
   -0.7500    3.8971    0.0000 C   0  0  0  0  0  0  0  0  0  0  0  0
   -1.5000    5.1962    0.0000 C   0  0  0  0  0  0  0  0  0  0  0  0
   -3.0000    5.1962    0.0000 O   0  0  0  0  0  0  0  0  0  0  0  0
   -0.7500    6.4952    0.0000 C   0  0  0  0  0  0  0  0  0  0  0  0
   -1.5000    7.7942    0.0000 O   0  0  0  0  0  0  0  0  0  0  0  0
   -1.5000    0.0000    0.0000 C   0  0  0  0  0  0  0  0  0  0  0  0
   -3.0000    0.0000    0.0000 C   0  0  0  0  0  0  0  0  0  0  0  0
   -0.7500   -1.2990    0.0000 C   0  0  0  0  0  0  0  0  0  0  0  0
    2.2500   -3.8971    0.0000 C   0  0  0  0  0  0  0  0  0  0  0  0
    1.5000   -5.1962    0.0000 C   0  0  0  0  0  0  0  0  0  0  0  0
    2.2500   -6.4952    0.0000 C   0  0  0  0  0  0  0  0  0  0  0  0
    3.7500   -6.4952    0.0000 C   0  0  0  0  0  0  0  0  0  0  0  0
    4.5000   -7.7942    0.0000 O   0  0  0  0  0  0  0  0  0  0  0  0
    3.7500   -9.0933    0.0000 C   0  0  0  0  0  0  0  0  0  0  0  0
    4.5000  -10.3923    0.0000 C   0  0  0  0  0  0  0  0  0  0  0  0
    6.0000  -10.3923    0.0000 O   0  0  0  0  0  0  0  0  0  0  0  0
    3.7500  -11.6913    0.0000 C   0  0  0  0  0  0  0  0  0  0  0  0
    5.0490  -12.4413    0.0000 C   0  0  0  0  0  0  0  0  0  0  0  0
    2.4510  -10.9413    0.0000 C   0  0  0  0  0  0  0  0  0  0  0  0
    3.0000  -12.9904    0.0000 C   0  0  0  0  0  0  0  0  0  0  0  0
    4.5000   -5.1962    0.0000 C   0  0  0  0  0  0  0  0  0  0  0  0
    6.0000   -5.1962    0.0000 C   0  0  0  0  0  0  0  0  0  0  0  0
    3.7500   -3.8971    0.0000 C   0  0  0  0  0  0  0  0  0  0  0  0
  1  2  1  0
  2  3  1  0
  3  4  1  0
  4  5  1  0
  3  6  1  0
  6  7  2  0
  7  8  1  0
  8  9  2  0
  9 10  1  0
 10 11  1  0
 11 12  1  0
 12 13  1  0
 12 14  1  0
 14 15  1  0
  9 16  1  0
 16 17  1  0
 16 18  2  0
  3 19  1  0
 19 20  2  0
 20 21  1  0
 21 22  2  0
 22 23  1  0
 23 24  1  0
 24 25  1  0
 25 26  1  0
 25 27  1  0
 27 28  1  0
 27 29  1  0
 27 30  1  0
 22 31  1  0
 31 32  1  0
 31 33  2  0
 18  6  1  0
 33 19  1  0
M  END
>  <assay_chembl_id>  (394) 
CHEMBL2343831

>  <assay_description>  (394) 
Antagonist activity at human androgen receptor expressed in HEK293 cells assessed as inhibition of transcriptional activity by luciferase and beta-galactosidase reporter gene assay

>  <parent_molecule_chembl_id>  (394) 
CHEMBL2334339

>  <canonical_smiles>  (394) 
CC[Si](CC)(c1ccc(OCC(O)CO)c(C)c1)c1ccc(OCC(O)C(C)(C)C)c(C)c1

>  <standard_type>  (394) 
IC50

>  <standard_relation>  (394) 
=

>  <standard_value>  (394) 
6800.0

>  <standard_units>  (394) 
nM

>  <target_pref_name>  (394) 
Androgen Receptor

>  <target_chembl_id>  (394) 
CHEMBL1871

>  <target_organism>  (394) 
Homo sapiens

>  <pchembl_median>  (394) 
7.7

$$$$
CHEMBL2346976
     RDKit          2D

 37 41  0  0  0  0  0  0  0  0999 V2000
    1.5000  -18.1865    0.0000 C   0  0  0  0  0  0  0  0  0  0  0  0
    3.0000  -18.1865    0.0000 C   0  0  0  0  0  0  0  0  0  0  0  0
    3.7500  -19.4856    0.0000 O   0  0  0  0  0  0  0  0  0  0  0  0
    3.7500  -16.8875    0.0000 N   0  0  0  0  0  0  0  0  0  0  0  0
    3.0000  -15.5885    0.0000 C   0  0  0  0  0  0  0  0  0  0  0  0
    3.7500  -14.2894    0.0000 C   0  0  0  0  0  0  0  0  0  0  0  0
    5.2500  -14.2894    0.0000 N   0  0  0  0  0  0  0  0  0  0  0  0
    6.0000  -12.9904    0.0000 C   0  0  0  0  0  0  0  0  0  0  0  0
    5.2500  -11.6913    0.0000 C   0  0  0  0  0  0  0  0  0  0  0  0
    6.0000  -10.3923    0.0000 O   0  0  0  0  0  0  0  0  0  0  0  0
    5.2500   -9.0933    0.0000 C   0  0  0  0  0  0  0  0  0  0  0  0
    6.0000   -7.7942    0.0000 C   0  0  0  0  0  0  0  0  0  0  0  0
    5.2500   -6.4952    0.0000 C   0  0  0  0  0  0  0  0  0  0  0  0
    3.7500   -6.4952    0.0000 C   0  0  0  0  0  0  0  0  0  0  0  0
    3.0000   -5.1962    0.0000 C   0  0  0  0  0  0  0  0  0  0  0  0
    3.7500   -3.8971    0.0000 C   0  0  0  0  0  0  0  0  0  0  0  0
    3.0000   -2.5981    0.0000 C   0  0  0  0  0  0  0  0  0  0  0  0
    1.5000   -2.5981    0.0000 N   0  0  0  0  0  0  0  0  0  0  0  0
    0.7500   -1.2990    0.0000 C   0  0  0  0  0  0  0  0  0  0  0  0
    1.5000    0.0000    0.0000 N   0  0  0  0  0  0  0  0  0  0  0  0
    0.7500    1.2990    0.0000 N   0  0  0  0  0  0  0  0  0  0  0  0
   -0.7500    1.2990    0.0000 C   0  0  0  0  0  0  0  0  0  0  0  0
   -1.2135    2.7256    0.0000 N   0  0  0  0  0  0  0  0  0  0  0  0
   -0.0000    3.6073    0.0000 N   0  0  0  0  0  0  0  0  0  0  0  0
    1.2135    2.7256    0.0000 C   0  0  0  0  0  0  0  0  0  0  0  0
    2.6401    3.1891    0.0000 C   0  0  0  0  0  0  0  0  0  0  0  0
    4.0667    3.6527    0.0000 F   0  0  0  0  0  0  0  0  0  0  0  0
    2.1766    4.6157    0.0000 F   0  0  0  0  0  0  0  0  0  0  0  0
    3.1036    1.7626    0.0000 F   0  0  0  0  0  0  0  0  0  0  0  0
   -1.5000    0.0000    0.0000 C   0  0  0  0  0  0  0  0  0  0  0  0
   -0.7500   -1.2990    0.0000 C   0  0  0  0  0  0  0  0  0  0  0  0
    0.7500   -3.8971    0.0000 C   0  0  0  0  0  0  0  0  0  0  0  0
    1.5000   -5.1962    0.0000 C   0  0  0  0  0  0  0  0  0  0  0  0
    3.0000   -7.7942    0.0000 C   0  0  0  0  0  0  0  0  0  0  0  0
    3.7500   -9.0933    0.0000 C   0  0  0  0  0  0  0  0  0  0  0  0
    6.0000  -15.5885    0.0000 C   0  0  0  0  0  0  0  0  0  0  0  0
    5.2500  -16.8875    0.0000 C   0  0  0  0  0  0  0  0  0  0  0  0
  1  2  1  0
  2  3  2  0
  2  4  1  0
  4  5  1  0
  5  6  1  0
  6  7  1  0
  7  8  1  0
  8  9  1  0
  9 10  1  0
 10 11  1  0
 11 12  2  0
 12 13  1  0
 13 14  2  0
 14 15  1  0
 15 16  1  0
 16 17  1  0
 17 18  1  0
 18 19  1  0
 19 20  2  0
 20 21  1  0
 21 22  1  0
 22 23  2  0
 23 24  1  0
 24 25  2  0
 25 26  1  0
 26 27  1  0
 26 28  1  0
 26 29  1  0
 22 30  1  0
 30 31  1  0
 18 32  1  0
 32 33  1  0
 14 34  1  0
 34 35  2  0
  7 36  1  0
 36 37  1  0
 37  4  1  0
 35 11  1  0
 33 15  1  0
 31 19  1  0
 25 21  1  0
M  END
>  <assay_chembl_id>  (395) 
CHEMBL2352673

>  <assay_description>  (395) 
Inhibition of androgen receptor-mediated cellular downregulation in human LNCAP cells assessed as decrease in nuclear receptor level after 20 to 22 hrs by laser-scanning fluorescence microplate cytometeric analysis

>  <parent_molecule_chembl_id>  (395) 
CHEMBL2346976

>  <canonical_smiles>  (395) 
CC(=O)N1CCN(CCOc2ccc(C3CCN(C4=Nn5c(nnc5C(F)(F)F)CC4)CC3)cc2)CC1

>  <standard_type>  (395) 
IC50

>  <standard_relation>  (395) 
=

>  <standard_value>  (395) 
1778.28

>  <standard_units>  (395) 
nM

>  <target_pref_name>  (395) 
Androgen Receptor

>  <target_chembl_id>  (395) 
CHEMBL1871

>  <target_organism>  (395) 
Homo sapiens

>  <pchembl_median>  (395) 
6.675

$$$$
CHEMBL2346975
     RDKit          2D

 38 42  0  0  0  0  0  0  0  0999 V2000
   10.2010  -16.1115    0.0000 C   0  0  0  0  0  0  0  0  0  0  0  0
   11.3501  -15.1474    0.0000 C   0  0  0  0  0  0  0  0  0  0  0  0
   12.7596  -15.6604    0.0000 O   0  0  0  0  0  0  0  0  0  0  0  0
   11.0896  -13.6702    0.0000 N   0  0  0  0  0  0  0  0  0  0  0  0
    9.6800  -13.1571    0.0000 C   0  0  0  0  0  0  0  0  0  0  0  0
    9.4196  -11.6799    0.0000 C   0  0  0  0  0  0  0  0  0  0  0  0
   10.5686  -10.7157    0.0000 N   0  0  0  0  0  0  0  0  0  0  0  0
   10.3082   -9.2385    0.0000 C   0  0  0  0  0  0  0  0  0  0  0  0
    8.8986   -8.7255    0.0000 C   0  0  0  0  0  0  0  0  0  0  0  0
    8.6382   -7.2483    0.0000 O   0  0  0  0  0  0  0  0  0  0  0  0
    7.2286   -6.7352    0.0000 C   0  0  0  0  0  0  0  0  0  0  0  0
    6.9681   -5.2580    0.0000 C   0  0  0  0  0  0  0  0  0  0  0  0
    5.5586   -4.7450    0.0000 C   0  0  0  0  0  0  0  0  0  0  0  0
    4.4095   -5.7092    0.0000 C   0  0  0  0  0  0  0  0  0  0  0  0
    3.0000   -5.1962    0.0000 C   0  0  0  0  0  0  0  0  0  0  0  0
    2.7395   -6.6734    0.0000 O   0  0  0  0  0  0  0  0  0  0  0  0
    3.7500   -3.8971    0.0000 C   0  0  0  0  0  0  0  0  0  0  0  0
    3.0000   -2.5981    0.0000 C   0  0  0  0  0  0  0  0  0  0  0  0
    1.5000   -2.5981    0.0000 N   0  0  0  0  0  0  0  0  0  0  0  0
    0.7500   -1.2990    0.0000 C   0  0  0  0  0  0  0  0  0  0  0  0
    1.5000    0.0000    0.0000 C   0  0  0  0  0  0  0  0  0  0  0  0
    0.7500    1.2990    0.0000 C   0  0  0  0  0  0  0  0  0  0  0  0
   -0.7500    1.2990    0.0000 C   0  0  0  0  0  0  0  0  0  0  0  0
   -1.7537    2.4138    0.0000 N   0  0  0  0  0  0  0  0  0  0  0  0
   -3.1240    1.8037    0.0000 N   0  0  0  0  0  0  0  0  0  0  0  0
   -2.9672    0.3119    0.0000 C   0  0  0  0  0  0  0  0  0  0  0  0
   -4.0819   -0.6918    0.0000 C   0  0  0  0  0  0  0  0  0  0  0  0
   -5.1967   -1.6955    0.0000 F   0  0  0  0  0  0  0  0  0  0  0  0
   -5.0856    0.4229    0.0000 F   0  0  0  0  0  0  0  0  0  0  0  0
   -3.0782   -1.8065    0.0000 F   0  0  0  0  0  0  0  0  0  0  0  0
   -1.5000    0.0000    0.0000 N   0  0  0  0  0  0  0  0  0  0  0  0
   -0.7500   -1.2990    0.0000 N   0  0  0  0  0  0  0  0  0  0  0  0
    0.7500   -3.8971    0.0000 C   0  0  0  0  0  0  0  0  0  0  0  0
    1.5000   -5.1962    0.0000 C   0  0  0  0  0  0  0  0  0  0  0  0
    4.6700   -7.1864    0.0000 C   0  0  0  0  0  0  0  0  0  0  0  0
    6.0796   -7.6994    0.0000 C   0  0  0  0  0  0  0  0  0  0  0  0
   11.9782  -11.2288    0.0000 C   0  0  0  0  0  0  0  0  0  0  0  0
   12.2387  -12.7060    0.0000 C   0  0  0  0  0  0  0  0  0  0  0  0
  1  2  1  0
  2  3  2  0
  2  4  1  0
  4  5  1  0
  5  6  1  0
  6  7  1  0
  7  8  1  0
  8  9  1  0
  9 10  1  0
 10 11  1  0
 11 12  2  0
 12 13  1  0
 13 14  2  0
 14 15  1  0
 15 16  1  0
 15 17  1  0
 17 18  1  0
 18 19  1  0
 19 20  1  0
 20 21  1  0
 21 22  2  0
 22 23  1  0
 23 24  2  0
 24 25  1  0
 25 26  2  0
 26 27  1  0
 27 28  1  0
 27 29  1  0
 27 30  1  0
 26 31  1  0
 31 32  1  0
 19 33  1  0
 33 34  1  0
 14 35  1  0
 35 36  2  0
  7 37  1  0
 37 38  1  0
 38  4  1  0
 36 11  1  0
 34 15  1  0
 32 20  2  0
 31 23  1  0
M  END
>  <assay_chembl_id>  (396) 
CHEMBL2352673

>  <assay_description>  (396) 
Inhibition of androgen receptor-mediated cellular downregulation in human LNCAP cells assessed as decrease in nuclear receptor level after 20 to 22 hrs by laser-scanning fluorescence microplate cytometeric analysis

>  <parent_molecule_chembl_id>  (396) 
CHEMBL2346975

>  <canonical_smiles>  (396) 
CC(=O)N1CCN(CCOc2ccc(C3(O)CCN(c4ccc5nnc(C(F)(F)F)n5n4)CC3)cc2)CC1

>  <standard_type>  (396) 
IC50

>  <standard_relation>  (396) 
=

>  <standard_value>  (396) 
1047.13

>  <standard_units>  (396) 
nM

>  <target_pref_name>  (396) 
Androgen Receptor

>  <target_chembl_id>  (396) 
CHEMBL1871

>  <target_organism>  (396) 
Homo sapiens

>  <pchembl_median>  (396) 
6.595

$$$$
CHEMBL2346974
     RDKit          2D

 37 41  0  0  0  0  0  0  0  0999 V2000
    1.5000  -18.1865    0.0000 C   0  0  0  0  0  0  0  0  0  0  0  0
    3.0000  -18.1865    0.0000 C   0  0  0  0  0  0  0  0  0  0  0  0
    3.7500  -19.4856    0.0000 O   0  0  0  0  0  0  0  0  0  0  0  0
    3.7500  -16.8875    0.0000 N   0  0  0  0  0  0  0  0  0  0  0  0
    3.0000  -15.5885    0.0000 C   0  0  0  0  0  0  0  0  0  0  0  0
    3.7500  -14.2894    0.0000 C   0  0  0  0  0  0  0  0  0  0  0  0
    5.2500  -14.2894    0.0000 N   0  0  0  0  0  0  0  0  0  0  0  0
    6.0000  -12.9904    0.0000 C   0  0  0  0  0  0  0  0  0  0  0  0
    5.2500  -11.6913    0.0000 C   0  0  0  0  0  0  0  0  0  0  0  0
    6.0000  -10.3923    0.0000 O   0  0  0  0  0  0  0  0  0  0  0  0
    5.2500   -9.0933    0.0000 C   0  0  0  0  0  0  0  0  0  0  0  0
    6.0000   -7.7942    0.0000 C   0  0  0  0  0  0  0  0  0  0  0  0
    5.2500   -6.4952    0.0000 C   0  0  0  0  0  0  0  0  0  0  0  0
    3.7500   -6.4952    0.0000 C   0  0  0  0  0  0  0  0  0  0  0  0
    3.0000   -5.1962    0.0000 C   0  0  0  0  0  0  0  0  0  0  0  0
    3.7500   -3.8971    0.0000 C   0  0  0  0  0  0  0  0  0  0  0  0
    3.0000   -2.5981    0.0000 C   0  0  0  0  0  0  0  0  0  0  0  0
    1.5000   -2.5981    0.0000 N   0  0  0  0  0  0  0  0  0  0  0  0
    0.7500   -1.2990    0.0000 C   0  0  0  0  0  0  0  0  0  0  0  0
    1.5000    0.0000    0.0000 C   0  0  0  0  0  0  0  0  0  0  0  0
    0.7500    1.2990    0.0000 C   0  0  0  0  0  0  0  0  0  0  0  0
   -0.7500    1.2990    0.0000 C   0  0  0  0  0  0  0  0  0  0  0  0
   -1.7537    2.4138    0.0000 N   0  0  0  0  0  0  0  0  0  0  0  0
   -3.1240    1.8037    0.0000 N   0  0  0  0  0  0  0  0  0  0  0  0
   -2.9672    0.3119    0.0000 C   0  0  0  0  0  0  0  0  0  0  0  0
   -4.0819   -0.6918    0.0000 C   0  0  0  0  0  0  0  0  0  0  0  0
   -5.1967   -1.6955    0.0000 F   0  0  0  0  0  0  0  0  0  0  0  0
   -5.0856    0.4229    0.0000 F   0  0  0  0  0  0  0  0  0  0  0  0
   -3.0782   -1.8065    0.0000 F   0  0  0  0  0  0  0  0  0  0  0  0
   -1.5000    0.0000    0.0000 N   0  0  0  0  0  0  0  0  0  0  0  0
   -0.7500   -1.2990    0.0000 N   0  0  0  0  0  0  0  0  0  0  0  0
    0.7500   -3.8971    0.0000 C   0  0  0  0  0  0  0  0  0  0  0  0
    1.5000   -5.1962    0.0000 C   0  0  0  0  0  0  0  0  0  0  0  0
    3.0000   -7.7942    0.0000 C   0  0  0  0  0  0  0  0  0  0  0  0
    3.7500   -9.0933    0.0000 C   0  0  0  0  0  0  0  0  0  0  0  0
    6.0000  -15.5885    0.0000 C   0  0  0  0  0  0  0  0  0  0  0  0
    5.2500  -16.8875    0.0000 C   0  0  0  0  0  0  0  0  0  0  0  0
  1  2  1  0
  2  3  2  0
  2  4  1  0
  4  5  1  0
  5  6  1  0
  6  7  1  0
  7  8  1  0
  8  9  1  0
  9 10  1  0
 10 11  1  0
 11 12  2  0
 12 13  1  0
 13 14  2  0
 14 15  1  0
 15 16  1  0
 16 17  1  0
 17 18  1  0
 18 19  1  0
 19 20  1  0
 20 21  2  0
 21 22  1  0
 22 23  2  0
 23 24  1  0
 24 25  2  0
 25 26  1  0
 26 27  1  0
 26 28  1  0
 26 29  1  0
 25 30  1  0
 30 31  1  0
 18 32  1  0
 32 33  1  0
 14 34  1  0
 34 35  2  0
  7 36  1  0
 36 37  1  0
 37  4  1  0
 35 11  1  0
 33 15  1  0
 31 19  2  0
 30 22  1  0
M  END
>  <assay_chembl_id>  (397) 
CHEMBL2352673

>  <assay_description>  (397) 
Inhibition of androgen receptor-mediated cellular downregulation in human LNCAP cells assessed as decrease in nuclear receptor level after 20 to 22 hrs by laser-scanning fluorescence microplate cytometeric analysis

>  <parent_molecule_chembl_id>  (397) 
CHEMBL2346974

>  <canonical_smiles>  (397) 
CC(=O)N1CCN(CCOc2ccc(C3CCN(c4ccc5nnc(C(F)(F)F)n5n4)CC3)cc2)CC1

>  <standard_type>  (397) 
IC50

>  <standard_relation>  (397) 
=

>  <standard_value>  (397) 
323.59

>  <standard_units>  (397) 
nM

>  <target_pref_name>  (397) 
Androgen Receptor

>  <target_chembl_id>  (397) 
CHEMBL1871

>  <target_organism>  (397) 
Homo sapiens

>  <pchembl_median>  (397) 
6.64

$$$$
CHEMBL2346973
     RDKit          2D

 34 38  0  0  0  0  0  0  0  0999 V2000
    2.7545  -13.3315    0.0000 C   0  0  0  0  0  0  0  0  0  0  0  0
    3.7582  -14.4462    0.0000 N   0  0  0  0  0  0  0  0  0  0  0  0
    3.4463  -15.9134    0.0000 N   0  0  0  0  0  0  0  0  0  0  0  0
    4.7454  -16.6634    0.0000 C   0  0  0  0  0  0  0  0  0  0  0  0
    5.8601  -15.6597    0.0000 C   0  0  0  0  0  0  0  0  0  0  0  0
    5.2500  -14.2894    0.0000 C   0  0  0  0  0  0  0  0  0  0  0  0
    6.0000  -12.9904    0.0000 C   0  0  0  0  0  0  0  0  0  0  0  0
    5.2500  -11.6913    0.0000 C   0  0  0  0  0  0  0  0  0  0  0  0
    6.0000  -10.3923    0.0000 O   0  0  0  0  0  0  0  0  0  0  0  0
    5.2500   -9.0933    0.0000 C   0  0  0  0  0  0  0  0  0  0  0  0
    6.0000   -7.7942    0.0000 C   0  0  0  0  0  0  0  0  0  0  0  0
    5.2500   -6.4952    0.0000 C   0  0  0  0  0  0  0  0  0  0  0  0
    3.7500   -6.4952    0.0000 C   0  0  0  0  0  0  0  0  0  0  0  0
    3.0000   -5.1962    0.0000 C   0  0  0  0  0  0  0  0  0  0  0  0
    3.7500   -3.8971    0.0000 C   0  0  0  0  0  0  0  0  0  0  0  0
    3.0000   -2.5981    0.0000 C   0  0  0  0  0  0  0  0  0  0  0  0
    1.5000   -2.5981    0.0000 N   0  0  0  0  0  0  0  0  0  0  0  0
    0.7500   -1.2990    0.0000 C   0  0  0  0  0  0  0  0  0  0  0  0
    1.5000    0.0000    0.0000 C   0  0  0  0  0  0  0  0  0  0  0  0
    0.7500    1.2990    0.0000 C   0  0  0  0  0  0  0  0  0  0  0  0
   -0.7500    1.2990    0.0000 C   0  0  0  0  0  0  0  0  0  0  0  0
   -1.7537    2.4138    0.0000 N   0  0  0  0  0  0  0  0  0  0  0  0
   -3.1240    1.8037    0.0000 N   0  0  0  0  0  0  0  0  0  0  0  0
   -2.9672    0.3119    0.0000 C   0  0  0  0  0  0  0  0  0  0  0  0
   -4.0819   -0.6918    0.0000 C   0  0  0  0  0  0  0  0  0  0  0  0
   -5.1967   -1.6955    0.0000 F   0  0  0  0  0  0  0  0  0  0  0  0
   -5.0856    0.4229    0.0000 F   0  0  0  0  0  0  0  0  0  0  0  0
   -3.0782   -1.8065    0.0000 F   0  0  0  0  0  0  0  0  0  0  0  0
   -1.5000    0.0000    0.0000 N   0  0  0  0  0  0  0  0  0  0  0  0
   -0.7500   -1.2990    0.0000 N   0  0  0  0  0  0  0  0  0  0  0  0
    0.7500   -3.8971    0.0000 C   0  0  0  0  0  0  0  0  0  0  0  0
    1.5000   -5.1962    0.0000 C   0  0  0  0  0  0  0  0  0  0  0  0
    3.0000   -7.7942    0.0000 C   0  0  0  0  0  0  0  0  0  0  0  0
    3.7500   -9.0933    0.0000 C   0  0  0  0  0  0  0  0  0  0  0  0
  1  2  1  0
  2  3  1  0
  3  4  2  0
  4  5  1  0
  5  6  2  0
  6  7  1  0
  7  8  1  0
  8  9  1  0
  9 10  1  0
 10 11  2  0
 11 12  1  0
 12 13  2  0
 13 14  1  0
 14 15  1  0
 15 16  1  0
 16 17  1  0
 17 18  1  0
 18 19  1  0
 19 20  2  0
 20 21  1  0
 21 22  2  0
 22 23  1  0
 23 24  2  0
 24 25  1  0
 25 26  1  0
 25 27  1  0
 25 28  1  0
 24 29  1  0
 29 30  1  0
 17 31  1  0
 31 32  1  0
 13 33  1  0
 33 34  2  0
  6  2  1  0
 34 10  1  0
 32 14  1  0
 30 18  2  0
 29 21  1  0
M  END
>  <assay_chembl_id>  (398) 
CHEMBL2352673

>  <assay_description>  (398) 
Inhibition of androgen receptor-mediated cellular downregulation in human LNCAP cells assessed as decrease in nuclear receptor level after 20 to 22 hrs by laser-scanning fluorescence microplate cytometeric analysis

>  <parent_molecule_chembl_id>  (398) 
CHEMBL2346973

>  <canonical_smiles>  (398) 
Cn1nccc1CCOc1ccc(C2CCN(c3ccc4nnc(C(F)(F)F)n4n3)CC2)cc1

>  <standard_type>  (398) 
IC50

>  <standard_relation>  (398) 
=

>  <standard_value>  (398) 
234.42

>  <standard_units>  (398) 
nM

>  <target_pref_name>  (398) 
Androgen Receptor

>  <target_chembl_id>  (398) 
CHEMBL1871

>  <target_organism>  (398) 
Homo sapiens

>  <pchembl_median>  (398) 
7.405

$$$$
CHEMBL2346972
     RDKit          2D

 27 30  0  0  0  0  0  0  0  0999 V2000
    0.7500  -11.6913    0.0000 F   0  0  0  0  0  0  0  0  0  0  0  0
    1.5000  -10.3923    0.0000 C   0  0  0  0  0  0  0  0  0  0  0  0
    0.7500   -9.0933    0.0000 C   0  0  0  0  0  0  0  0  0  0  0  0
    1.5000   -7.7942    0.0000 C   0  0  0  0  0  0  0  0  0  0  0  0
    3.0000   -7.7942    0.0000 C   0  0  0  0  0  0  0  0  0  0  0  0
    3.7500   -6.4952    0.0000 C   0  0  0  0  0  0  0  0  0  0  0  0
    3.0000   -5.1962    0.0000 N   0  0  0  0  0  0  0  0  0  0  0  0
    3.7500   -3.8971    0.0000 C   0  0  0  0  0  0  0  0  0  0  0  0
    3.0000   -2.5981    0.0000 C   0  0  0  0  0  0  0  0  0  0  0  0
    1.5000   -2.5981    0.0000 N   0  0  0  0  0  0  0  0  0  0  0  0
    0.7500   -1.2990    0.0000 C   0  0  0  0  0  0  0  0  0  0  0  0
    1.5000    0.0000    0.0000 N   0  0  0  0  0  0  0  0  0  0  0  0
    0.7500    1.2990    0.0000 N   0  0  0  0  0  0  0  0  0  0  0  0
   -0.7500    1.2990    0.0000 C   0  0  0  0  0  0  0  0  0  0  0  0
   -1.2135    2.7256    0.0000 N   0  0  0  0  0  0  0  0  0  0  0  0
   -0.0000    3.6073    0.0000 N   0  0  0  0  0  0  0  0  0  0  0  0
    1.2135    2.7256    0.0000 C   0  0  0  0  0  0  0  0  0  0  0  0
    2.6401    3.1891    0.0000 C   0  0  0  0  0  0  0  0  0  0  0  0
    4.0667    3.6527    0.0000 F   0  0  0  0  0  0  0  0  0  0  0  0
    2.1766    4.6157    0.0000 F   0  0  0  0  0  0  0  0  0  0  0  0
    3.1036    1.7626    0.0000 F   0  0  0  0  0  0  0  0  0  0  0  0
   -1.5000    0.0000    0.0000 C   0  0  0  0  0  0  0  0  0  0  0  0
   -0.7500   -1.2990    0.0000 C   0  0  0  0  0  0  0  0  0  0  0  0
    0.7500   -3.8971    0.0000 C   0  0  0  0  0  0  0  0  0  0  0  0
    1.5000   -5.1962    0.0000 C   0  0  0  0  0  0  0  0  0  0  0  0
    3.7500   -9.0933    0.0000 C   0  0  0  0  0  0  0  0  0  0  0  0
    3.0000  -10.3923    0.0000 C   0  0  0  0  0  0  0  0  0  0  0  0
  1  2  1  0
  2  3  2  0
  3  4  1  0
  4  5  2  0
  5  6  1  0
  6  7  1  0
  7  8  1  0
  8  9  1  0
  9 10  1  0
 10 11  1  0
 11 12  2  0
 12 13  1  0
 13 14  1  0
 14 15  2  0
 15 16  1  0
 16 17  2  0
 17 18  1  0
 18 19  1  0
 18 20  1  0
 18 21  1  0
 14 22  1  0
 22 23  1  0
 10 24  1  0
 24 25  1  0
  5 26  1  0
 26 27  2  0
 27  2  1  0
 25  7  1  0
 23 11  1  0
 17 13  1  0
M  END
>  <assay_chembl_id>  (399) 
CHEMBL2352673

>  <assay_description>  (399) 
Inhibition of androgen receptor-mediated cellular downregulation in human LNCAP cells assessed as decrease in nuclear receptor level after 20 to 22 hrs by laser-scanning fluorescence microplate cytometeric analysis

>  <parent_molecule_chembl_id>  (399) 
CHEMBL2346972

>  <canonical_smiles>  (399) 
Fc1ccc(CN2CCN(C3=Nn4c(nnc4C(F)(F)F)CC3)CC2)cc1

>  <standard_type>  (399) 
IC50

>  <standard_relation>  (399) 
=

>  <standard_value>  (399) 
5888.44

>  <standard_units>  (399) 
nM

>  <target_pref_name>  (399) 
Androgen Receptor

>  <target_chembl_id>  (399) 
CHEMBL1871

>  <target_organism>  (399) 
Homo sapiens

>  <pchembl_median>  (399) 
6.8

$$$$
CHEMBL2346971
     RDKit          2D

 26 29  0  0  0  0  0  0  0  0999 V2000
    2.7395   -6.6734    0.0000 O   0  0  0  0  0  0  0  0  0  0  0  0
    3.0000   -5.1962    0.0000 C   0  0  0  0  0  0  0  0  0  0  0  0
    4.4095   -5.7092    0.0000 C   0  0  0  0  0  0  0  0  0  0  0  0
    4.6700   -7.1864    0.0000 C   0  0  0  0  0  0  0  0  0  0  0  0
    6.0796   -7.6994    0.0000 C   0  0  0  0  0  0  0  0  0  0  0  0
    7.2286   -6.7352    0.0000 C   0  0  0  0  0  0  0  0  0  0  0  0
    6.9681   -5.2580    0.0000 N   0  0  0  0  0  0  0  0  0  0  0  0
    5.5586   -4.7450    0.0000 C   0  0  0  0  0  0  0  0  0  0  0  0
    3.7500   -3.8971    0.0000 C   0  0  0  0  0  0  0  0  0  0  0  0
    3.0000   -2.5981    0.0000 C   0  0  0  0  0  0  0  0  0  0  0  0
    1.5000   -2.5981    0.0000 N   0  0  0  0  0  0  0  0  0  0  0  0
    0.7500   -1.2990    0.0000 C   0  0  0  0  0  0  0  0  0  0  0  0
    1.5000    0.0000    0.0000 C   0  0  0  0  0  0  0  0  0  0  0  0
    0.7500    1.2990    0.0000 C   0  0  0  0  0  0  0  0  0  0  0  0
   -0.7500    1.2990    0.0000 C   0  0  0  0  0  0  0  0  0  0  0  0
   -1.7537    2.4138    0.0000 N   0  0  0  0  0  0  0  0  0  0  0  0
   -3.1240    1.8037    0.0000 N   0  0  0  0  0  0  0  0  0  0  0  0
   -2.9672    0.3119    0.0000 C   0  0  0  0  0  0  0  0  0  0  0  0
   -4.0819   -0.6918    0.0000 C   0  0  0  0  0  0  0  0  0  0  0  0
   -5.1967   -1.6955    0.0000 F   0  0  0  0  0  0  0  0  0  0  0  0
   -5.0856    0.4229    0.0000 F   0  0  0  0  0  0  0  0  0  0  0  0
   -3.0782   -1.8065    0.0000 F   0  0  0  0  0  0  0  0  0  0  0  0
   -1.5000    0.0000    0.0000 N   0  0  0  0  0  0  0  0  0  0  0  0
   -0.7500   -1.2990    0.0000 N   0  0  0  0  0  0  0  0  0  0  0  0
    0.7500   -3.8971    0.0000 C   0  0  0  0  0  0  0  0  0  0  0  0
    1.5000   -5.1962    0.0000 C   0  0  0  0  0  0  0  0  0  0  0  0
  1  2  1  0
  2  3  1  0
  3  4  2  0
  4  5  1  0
  5  6  2  0
  6  7  1  0
  7  8  2  0
  2  9  1  0
  9 10  1  0
 10 11  1  0
 11 12  1  0
 12 13  1  0
 13 14  2  0
 14 15  1  0
 15 16  2  0
 16 17  1  0
 17 18  2  0
 18 19  1  0
 19 20  1  0
 19 21  1  0
 19 22  1  0
 18 23  1  0
 23 24  1  0
 11 25  1  0
 25 26  1  0
 26  2  1  0
  8  3  1  0
 24 12  2  0
 23 15  1  0
M  END
>  <assay_chembl_id>  (400) 
CHEMBL2352673

>  <assay_description>  (400) 
Inhibition of androgen receptor-mediated cellular downregulation in human LNCAP cells assessed as decrease in nuclear receptor level after 20 to 22 hrs by laser-scanning fluorescence microplate cytometeric analysis

>  <parent_molecule_chembl_id>  (400) 
CHEMBL2346971

>  <canonical_smiles>  (400) 
OC1(c2cccnc2)CCN(c2ccc3nnc(C(F)(F)F)n3n2)CC1

>  <standard_type>  (400) 
IC50

>  <standard_relation>  (400) 
=

>  <standard_value>  (400) 
10715.19

>  <standard_units>  (400) 
nM

>  <target_pref_name>  (400) 
Androgen Receptor

>  <target_chembl_id>  (400) 
CHEMBL1871

>  <target_organism>  (400) 
Homo sapiens

>  <pchembl_median>  (400) 
5.96

$$$$
CHEMBL2346970
     RDKit          2D

 27 30  0  0  0  0  0  0  0  0999 V2000
    2.7395   -6.6734    0.0000 O   0  0  0  0  0  0  0  0  0  0  0  0
    3.0000   -5.1962    0.0000 C   0  0  0  0  0  0  0  0  0  0  0  0
    4.4095   -5.7092    0.0000 C   0  0  0  0  0  0  0  0  0  0  0  0
    4.6700   -7.1864    0.0000 C   0  0  0  0  0  0  0  0  0  0  0  0
    6.0796   -7.6994    0.0000 C   0  0  0  0  0  0  0  0  0  0  0  0
    7.2286   -6.7352    0.0000 C   0  0  0  0  0  0  0  0  0  0  0  0
    8.6382   -7.2483    0.0000 F   0  0  0  0  0  0  0  0  0  0  0  0
    6.9681   -5.2580    0.0000 C   0  0  0  0  0  0  0  0  0  0  0  0
    5.5586   -4.7450    0.0000 C   0  0  0  0  0  0  0  0  0  0  0  0
    3.7500   -3.8971    0.0000 C   0  0  0  0  0  0  0  0  0  0  0  0
    3.0000   -2.5981    0.0000 C   0  0  0  0  0  0  0  0  0  0  0  0
    1.5000   -2.5981    0.0000 N   0  0  0  0  0  0  0  0  0  0  0  0
    0.7500   -1.2990    0.0000 C   0  0  0  0  0  0  0  0  0  0  0  0
    1.5000    0.0000    0.0000 C   0  0  0  0  0  0  0  0  0  0  0  0
    0.7500    1.2990    0.0000 C   0  0  0  0  0  0  0  0  0  0  0  0
   -0.7500    1.2990    0.0000 C   0  0  0  0  0  0  0  0  0  0  0  0
   -1.7537    2.4138    0.0000 N   0  0  0  0  0  0  0  0  0  0  0  0
   -3.1240    1.8037    0.0000 N   0  0  0  0  0  0  0  0  0  0  0  0
   -2.9672    0.3119    0.0000 C   0  0  0  0  0  0  0  0  0  0  0  0
   -4.0819   -0.6918    0.0000 C   0  0  0  0  0  0  0  0  0  0  0  0
   -5.1967   -1.6955    0.0000 F   0  0  0  0  0  0  0  0  0  0  0  0
   -5.0856    0.4229    0.0000 F   0  0  0  0  0  0  0  0  0  0  0  0
   -3.0782   -1.8065    0.0000 F   0  0  0  0  0  0  0  0  0  0  0  0
   -1.5000    0.0000    0.0000 N   0  0  0  0  0  0  0  0  0  0  0  0
   -0.7500   -1.2990    0.0000 N   0  0  0  0  0  0  0  0  0  0  0  0
    0.7500   -3.8971    0.0000 C   0  0  0  0  0  0  0  0  0  0  0  0
    1.5000   -5.1962    0.0000 C   0  0  0  0  0  0  0  0  0  0  0  0
  1  2  1  0
  2  3  1  0
  3  4  2  0
  4  5  1  0
  5  6  2  0
  6  7  1  0
  6  8  1  0
  8  9  2  0
  2 10  1  0
 10 11  1  0
 11 12  1  0
 12 13  1  0
 13 14  1  0
 14 15  2  0
 15 16  1  0
 16 17  2  0
 17 18  1  0
 18 19  2  0
 19 20  1  0
 20 21  1  0
 20 22  1  0
 20 23  1  0
 19 24  1  0
 24 25  1  0
 12 26  1  0
 26 27  1  0
 27  2  1  0
  9  3  1  0
 25 13  2  0
 24 16  1  0
M  END
>  <assay_chembl_id>  (401) 
CHEMBL2352673

>  <assay_description>  (401) 
Inhibition of androgen receptor-mediated cellular downregulation in human LNCAP cells assessed as decrease in nuclear receptor level after 20 to 22 hrs by laser-scanning fluorescence microplate cytometeric analysis

>  <parent_molecule_chembl_id>  (401) 
CHEMBL2346970

>  <canonical_smiles>  (401) 
OC1(c2ccc(F)cc2)CCN(c2ccc3nnc(C(F)(F)F)n3n2)CC1

>  <standard_type>  (401) 
IC50

>  <standard_relation>  (401) 
=

>  <standard_value>  (401) 
3715.35

>  <standard_units>  (401) 
nM

>  <target_pref_name>  (401) 
Androgen Receptor

>  <target_chembl_id>  (401) 
CHEMBL1871

>  <target_organism>  (401) 
Homo sapiens

>  <pchembl_median>  (401) 
6.545

$$$$
CHEMBL2346969
     RDKit          2D

 28 31  0  0  0  0  0  0  0  0999 V2000
    3.7500  -11.6913    0.0000 F   0  0  0  0  0  0  0  0  0  0  0  0
    3.0000  -10.3923    0.0000 C   0  0  0  0  0  0  0  0  0  0  0  0
    1.5000  -10.3923    0.0000 C   0  0  0  0  0  0  0  0  0  0  0  0
    0.7500   -9.0933    0.0000 C   0  0  0  0  0  0  0  0  0  0  0  0
    1.5000   -7.7942    0.0000 C   0  0  0  0  0  0  0  0  0  0  0  0
    3.0000   -7.7942    0.0000 C   0  0  0  0  0  0  0  0  0  0  0  0
    3.7500   -6.4952    0.0000 C   0  0  0  0  0  0  0  0  0  0  0  0
    3.0000   -5.1962    0.0000 N   0  0  0  0  0  0  0  0  0  0  0  0
    3.7500   -3.8971    0.0000 C   0  0  0  0  0  0  0  0  0  0  0  0
    3.0000   -2.5981    0.0000 C   0  0  0  0  0  0  0  0  0  0  0  0
    1.5000   -2.5981    0.0000 N   0  0  0  0  0  0  0  0  0  0  0  0
    0.7500   -1.2990    0.0000 C   0  0  0  0  0  0  0  0  0  0  0  0
    1.5000    0.0000    0.0000 C   0  0  0  0  0  0  0  0  0  0  0  0
    0.7500    1.2990    0.0000 C   0  0  0  0  0  0  0  0  0  0  0  0
   -0.7500    1.2990    0.0000 C   0  0  0  0  0  0  0  0  0  0  0  0
   -1.7537    2.4138    0.0000 N   0  0  0  0  0  0  0  0  0  0  0  0
   -3.1240    1.8037    0.0000 N   0  0  0  0  0  0  0  0  0  0  0  0
   -2.9672    0.3119    0.0000 C   0  0  0  0  0  0  0  0  0  0  0  0
   -4.0819   -0.6918    0.0000 C   0  0  0  0  0  0  0  0  0  0  0  0
   -5.1967   -1.6955    0.0000 F   0  0  0  0  0  0  0  0  0  0  0  0
   -5.0856    0.4229    0.0000 F   0  0  0  0  0  0  0  0  0  0  0  0
   -3.0782   -1.8065    0.0000 F   0  0  0  0  0  0  0  0  0  0  0  0
   -1.5000    0.0000    0.0000 N   0  0  0  0  0  0  0  0  0  0  0  0
   -0.7500   -1.2990    0.0000 N   0  0  0  0  0  0  0  0  0  0  0  0
    0.7500   -3.8971    0.0000 C   0  0  0  0  0  0  0  0  0  0  0  0
    1.5000   -5.1962    0.0000 C   0  0  0  0  0  0  0  0  0  0  0  0
    3.7500   -9.0933    0.0000 C   0  0  0  0  0  0  0  0  0  0  0  0
    5.2500   -9.0933    0.0000 F   0  0  0  0  0  0  0  0  0  0  0  0
  1  2  1  0
  2  3  2  0
  3  4  1  0
  4  5  2  0
  5  6  1  0
  6  7  1  0
  7  8  1  0
  8  9  1  0
  9 10  1  0
 10 11  1  0
 11 12  1  0
 12 13  1  0
 13 14  2  0
 14 15  1  0
 15 16  2  0
 16 17  1  0
 17 18  2  0
 18 19  1  0
 19 20  1  0
 19 21  1  0
 19 22  1  0
 18 23  1  0
 23 24  1  0
 11 25  1  0
 25 26  1  0
  6 27  2  0
 27 28  1  0
 27  2  1  0
 26  8  1  0
 24 12  2  0
 23 15  1  0
M  END
>  <assay_chembl_id>  (402) 
CHEMBL2352673

>  <assay_description>  (402) 
Inhibition of androgen receptor-mediated cellular downregulation in human LNCAP cells assessed as decrease in nuclear receptor level after 20 to 22 hrs by laser-scanning fluorescence microplate cytometeric analysis

>  <parent_molecule_chembl_id>  (402) 
CHEMBL2346969

>  <canonical_smiles>  (402) 
Fc1cccc(CN2CCN(c3ccc4nnc(C(F)(F)F)n4n3)CC2)c1F

>  <standard_type>  (402) 
IC50

>  <standard_relation>  (402) 
=

>  <standard_value>  (402) 
2089.3

>  <standard_units>  (402) 
nM

>  <target_pref_name>  (402) 
Androgen Receptor

>  <target_chembl_id>  (402) 
CHEMBL1871

>  <target_organism>  (402) 
Homo sapiens

>  <pchembl_median>  (402) 
6.48

$$$$
CHEMBL2346968
     RDKit          2D

 27 30  0  0  0  0  0  0  0  0999 V2000
    0.7500  -11.6913    0.0000 F   0  0  0  0  0  0  0  0  0  0  0  0
    1.5000  -10.3923    0.0000 C   0  0  0  0  0  0  0  0  0  0  0  0
    0.7500   -9.0933    0.0000 C   0  0  0  0  0  0  0  0  0  0  0  0
    1.5000   -7.7942    0.0000 C   0  0  0  0  0  0  0  0  0  0  0  0
    3.0000   -7.7942    0.0000 C   0  0  0  0  0  0  0  0  0  0  0  0
    3.7500   -6.4952    0.0000 C   0  0  0  0  0  0  0  0  0  0  0  0
    3.0000   -5.1962    0.0000 N   0  0  0  0  0  0  0  0  0  0  0  0
    3.7500   -3.8971    0.0000 C   0  0  0  0  0  0  0  0  0  0  0  0
    3.0000   -2.5981    0.0000 C   0  0  0  0  0  0  0  0  0  0  0  0
    1.5000   -2.5981    0.0000 N   0  0  0  0  0  0  0  0  0  0  0  0
    0.7500   -1.2990    0.0000 C   0  0  0  0  0  0  0  0  0  0  0  0
    1.5000    0.0000    0.0000 C   0  0  0  0  0  0  0  0  0  0  0  0
    0.7500    1.2990    0.0000 C   0  0  0  0  0  0  0  0  0  0  0  0
   -0.7500    1.2990    0.0000 C   0  0  0  0  0  0  0  0  0  0  0  0
   -1.7537    2.4138    0.0000 N   0  0  0  0  0  0  0  0  0  0  0  0
   -3.1240    1.8037    0.0000 N   0  0  0  0  0  0  0  0  0  0  0  0
   -2.9672    0.3119    0.0000 C   0  0  0  0  0  0  0  0  0  0  0  0
   -4.0819   -0.6918    0.0000 C   0  0  0  0  0  0  0  0  0  0  0  0
   -5.1967   -1.6955    0.0000 F   0  0  0  0  0  0  0  0  0  0  0  0
   -5.0856    0.4229    0.0000 F   0  0  0  0  0  0  0  0  0  0  0  0
   -3.0782   -1.8065    0.0000 F   0  0  0  0  0  0  0  0  0  0  0  0
   -1.5000    0.0000    0.0000 N   0  0  0  0  0  0  0  0  0  0  0  0
   -0.7500   -1.2990    0.0000 N   0  0  0  0  0  0  0  0  0  0  0  0
    0.7500   -3.8971    0.0000 C   0  0  0  0  0  0  0  0  0  0  0  0
    1.5000   -5.1962    0.0000 C   0  0  0  0  0  0  0  0  0  0  0  0
    3.7500   -9.0933    0.0000 C   0  0  0  0  0  0  0  0  0  0  0  0
    3.0000  -10.3923    0.0000 C   0  0  0  0  0  0  0  0  0  0  0  0
  1  2  1  0
  2  3  2  0
  3  4  1  0
  4  5  2  0
  5  6  1  0
  6  7  1  0
  7  8  1  0
  8  9  1  0
  9 10  1  0
 10 11  1  0
 11 12  1  0
 12 13  2  0
 13 14  1  0
 14 15  2  0
 15 16  1  0
 16 17  2  0
 17 18  1  0
 18 19  1  0
 18 20  1  0
 18 21  1  0
 17 22  1  0
 22 23  1  0
 10 24  1  0
 24 25  1  0
  5 26  1  0
 26 27  2  0
 27  2  1  0
 25  7  1  0
 23 11  2  0
 22 14  1  0
M  END
>  <assay_chembl_id>  (403) 
CHEMBL2352673

>  <assay_description>  (403) 
Inhibition of androgen receptor-mediated cellular downregulation in human LNCAP cells assessed as decrease in nuclear receptor level after 20 to 22 hrs by laser-scanning fluorescence microplate cytometeric analysis

>  <parent_molecule_chembl_id>  (403) 
CHEMBL2346968

>  <canonical_smiles>  (403) 
Fc1ccc(CN2CCN(c3ccc4nnc(C(F)(F)F)n4n3)CC2)cc1

>  <standard_type>  (403) 
IC50

>  <standard_relation>  (403) 
=

>  <standard_value>  (403) 
1584.89

>  <standard_units>  (403) 
nM

>  <target_pref_name>  (403) 
Androgen Receptor

>  <target_chembl_id>  (403) 
CHEMBL1871

>  <target_organism>  (403) 
Homo sapiens

>  <pchembl_median>  (403) 
5.945

$$$$
CHEMBL2346967
     RDKit          2D

 28 31  0  0  0  0  0  0  0  0999 V2000
   -0.0000  -12.9904    0.0000 N   0  0  0  0  0  0  0  0  0  0  0  0
    0.7500  -11.6913    0.0000 C   0  0  0  0  0  0  0  0  0  0  0  0
    1.5000  -10.3923    0.0000 C   0  0  0  0  0  0  0  0  0  0  0  0
    0.7500   -9.0933    0.0000 C   0  0  0  0  0  0  0  0  0  0  0  0
    1.5000   -7.7942    0.0000 C   0  0  0  0  0  0  0  0  0  0  0  0
    3.0000   -7.7942    0.0000 C   0  0  0  0  0  0  0  0  0  0  0  0
    3.7500   -6.4952    0.0000 C   0  0  0  0  0  0  0  0  0  0  0  0
    3.0000   -5.1962    0.0000 N   0  0  0  0  0  0  0  0  0  0  0  0
    3.7500   -3.8971    0.0000 C   0  0  0  0  0  0  0  0  0  0  0  0
    3.0000   -2.5981    0.0000 C   0  0  0  0  0  0  0  0  0  0  0  0
    1.5000   -2.5981    0.0000 N   0  0  0  0  0  0  0  0  0  0  0  0
    0.7500   -1.2990    0.0000 C   0  0  0  0  0  0  0  0  0  0  0  0
    1.5000    0.0000    0.0000 C   0  0  0  0  0  0  0  0  0  0  0  0
    0.7500    1.2990    0.0000 C   0  0  0  0  0  0  0  0  0  0  0  0
   -0.7500    1.2990    0.0000 C   0  0  0  0  0  0  0  0  0  0  0  0
   -1.7537    2.4138    0.0000 N   0  0  0  0  0  0  0  0  0  0  0  0
   -3.1240    1.8037    0.0000 N   0  0  0  0  0  0  0  0  0  0  0  0
   -2.9672    0.3119    0.0000 C   0  0  0  0  0  0  0  0  0  0  0  0
   -4.0819   -0.6918    0.0000 C   0  0  0  0  0  0  0  0  0  0  0  0
   -5.1967   -1.6955    0.0000 F   0  0  0  0  0  0  0  0  0  0  0  0
   -5.0856    0.4229    0.0000 F   0  0  0  0  0  0  0  0  0  0  0  0
   -3.0782   -1.8065    0.0000 F   0  0  0  0  0  0  0  0  0  0  0  0
   -1.5000    0.0000    0.0000 N   0  0  0  0  0  0  0  0  0  0  0  0
   -0.7500   -1.2990    0.0000 N   0  0  0  0  0  0  0  0  0  0  0  0
    0.7500   -3.8971    0.0000 C   0  0  0  0  0  0  0  0  0  0  0  0
    1.5000   -5.1962    0.0000 C   0  0  0  0  0  0  0  0  0  0  0  0
    3.7500   -9.0933    0.0000 C   0  0  0  0  0  0  0  0  0  0  0  0
    3.0000  -10.3923    0.0000 C   0  0  0  0  0  0  0  0  0  0  0  0
  1  2  3  0
  2  3  1  0
  3  4  2  0
  4  5  1  0
  5  6  2  0
  6  7  1  0
  7  8  1  0
  8  9  1  0
  9 10  1  0
 10 11  1  0
 11 12  1  0
 12 13  1  0
 13 14  2  0
 14 15  1  0
 15 16  2  0
 16 17  1  0
 17 18  2  0
 18 19  1  0
 19 20  1  0
 19 21  1  0
 19 22  1  0
 18 23  1  0
 23 24  1  0
 11 25  1  0
 25 26  1  0
  6 27  1  0
 27 28  2  0
 28  3  1  0
 26  8  1  0
 24 12  2  0
 23 15  1  0
M  END
>  <assay_chembl_id>  (404) 
CHEMBL2352673

>  <assay_description>  (404) 
Inhibition of androgen receptor-mediated cellular downregulation in human LNCAP cells assessed as decrease in nuclear receptor level after 20 to 22 hrs by laser-scanning fluorescence microplate cytometeric analysis

>  <parent_molecule_chembl_id>  (404) 
CHEMBL2346967

>  <canonical_smiles>  (404) 
N#Cc1ccc(CN2CCN(c3ccc4nnc(C(F)(F)F)n4n3)CC2)cc1

>  <standard_type>  (404) 
IC50

>  <standard_relation>  (404) 
=

>  <standard_value>  (404) 
1513.56

>  <standard_units>  (404) 
nM

>  <target_pref_name>  (404) 
Androgen Receptor

>  <target_chembl_id>  (404) 
CHEMBL1871

>  <target_organism>  (404) 
Homo sapiens

>  <pchembl_median>  (404) 
6.36

$$$$
CHEMBL2397337
     RDKit          2D

 30 33  0  0  0  0  0  0  0  0999 V2000
   -6.0000  -15.5885    0.0000 C   0  0  0  0  0  0  0  0  0  0  0  0
   -4.5000  -15.5885    0.0000 C   0  0  0  0  0  0  0  0  0  0  0  0
   -3.7500  -14.2894    0.0000 S   0  0  0  0  0  0  0  0  0  0  0  0
   -5.0490  -13.5394    0.0000 O   0  0  0  0  0  0  0  0  0  0  0  0
   -2.4510  -15.0394    0.0000 O   0  0  0  0  0  0  0  0  0  0  0  0
   -3.0000  -12.9904    0.0000 N   0  0  0  0  0  0  0  0  0  0  0  0
   -3.7500  -11.6913    0.0000 C   0  0  0  0  0  0  0  0  0  0  0  0
   -5.2500  -11.6913    0.0000 C   0  0  0  0  0  0  0  0  0  0  0  0
   -6.0000  -10.3923    0.0000 C   0  0  0  0  0  0  0  0  0  0  0  0
   -5.2500   -9.0933    0.0000 C   0  0  0  0  0  0  0  0  0  0  0  0
   -3.7500   -9.0933    0.0000 C   0  0  0  0  0  0  0  0  0  0  0  0
   -3.0000   -7.7942    0.0000 C   0  0  0  0  0  0  0  0  0  0  0  0
   -1.5000   -7.7942    0.0000 C   0  0  0  0  0  0  0  0  0  0  0  0
   -0.7500   -6.4952    0.0000 C   0  0  0  0  0  0  0  0  0  0  0  0
    0.7500   -6.4952    0.0000 O   0  0  0  0  0  0  0  0  0  0  0  0
   -1.5000   -5.1962    0.0000 N   0  0  0  0  0  0  0  0  0  0  0  0
   -0.7500   -3.8971    0.0000 C   0  0  0  0  0  0  0  0  0  0  0  0
    0.7500   -3.8971    0.0000 C   0  0  0  0  0  0  0  0  0  0  0  0
    1.5000   -2.5981    0.0000 C   0  0  0  0  0  0  0  0  0  0  0  0
    0.7500   -1.2990    0.0000 C   0  0  0  0  0  0  0  0  0  0  0  0
    1.5000    0.0000    0.0000 C   0  0  0  0  0  0  0  0  0  0  0  0
    0.7500    1.2990    0.0000 C   0  0  0  0  0  0  0  0  0  0  0  0
   -0.7500    1.2990    0.0000 C   0  0  0  0  0  0  0  0  0  0  0  0
   -1.5000    0.0000    0.0000 C   0  0  0  0  0  0  0  0  0  0  0  0
   -0.7500   -1.2990    0.0000 C   0  0  0  0  0  0  0  0  0  0  0  0
   -1.5000   -2.5981    0.0000 C   0  0  0  0  0  0  0  0  0  0  0  0
   -3.0000   -5.1962    0.0000 N   0  0  0  0  0  0  0  0  0  0  0  0
   -3.7500   -6.4952    0.0000 C   0  0  0  0  0  0  0  0  0  0  0  0
   -5.2500   -6.4952    0.0000 C   0  0  0  0  0  0  0  0  0  0  0  0
   -3.0000  -10.3923    0.0000 C   0  0  0  0  0  0  0  0  0  0  0  0
  1  2  1  0
  2  3  1  0
  3  4  2  0
  3  5  2  0
  3  6  1  0
  6  7  1  0
  7  8  2  0
  8  9  1  0
  9 10  2  0
 10 11  1  0
 11 12  1  0
 12 13  2  0
 13 14  1  0
 14 15  2  0
 14 16  1  0
 16 17  1  0
 17 18  2  0
 18 19  1  0
 19 20  2  0
 20 21  1  0
 21 22  2  0
 22 23  1  0
 23 24  2  0
 24 25  1  0
 25 26  2  0
 16 27  1  0
 27 28  2  0
 28 29  1  0
 11 30  2  0
 30  7  1  0
 28 12  1  0
 26 17  1  0
 25 20  1  0
M  END
>  <assay_chembl_id>  (405) 
CHEMBL2399205

>  <assay_description>  (405) 
Inhibition of androgen receptor in human LNCAP cells after 1 day by luciferase reporter gene assay

>  <parent_molecule_chembl_id>  (405) 
CHEMBL2397337

>  <canonical_smiles>  (405) 
CCS(=O)(=O)Nc1cccc(-c2cc(=O)n(-c3ccc4ccccc4c3)nc2C)c1

>  <standard_type>  (405) 
IC50

>  <standard_relation>  (405) 
=

>  <standard_value>  (405) 
9760.0

>  <standard_units>  (405) 
nM

>  <target_pref_name>  (405) 
Androgen Receptor

>  <target_chembl_id>  (405) 
CHEMBL1871

>  <target_organism>  (405) 
Homo sapiens

>  <pchembl_median>  (405) 
6.77

$$$$
CHEMBL2397336
     RDKit          2D

 28 30  0  0  0  0  0  0  0  0999 V2000
    3.7500   -3.8971    0.0000 C   0  0  0  0  0  0  0  0  0  0  0  0
    4.5000   -2.5981    0.0000 C   0  0  0  0  0  0  0  0  0  0  0  0
    3.7500   -1.2990    0.0000 S   0  0  0  0  0  0  0  0  0  0  0  0
    2.4510   -2.0490    0.0000 O   0  0  0  0  0  0  0  0  0  0  0  0
    5.0490   -0.5490    0.0000 O   0  0  0  0  0  0  0  0  0  0  0  0
    3.0000    0.0000    0.0000 N   0  0  0  0  0  0  0  0  0  0  0  0
    1.5000    0.0000    0.0000 C   0  0  0  0  0  0  0  0  0  0  0  0
    0.7500   -1.2990    0.0000 C   0  0  0  0  0  0  0  0  0  0  0  0
   -0.7500   -1.2990    0.0000 C   0  0  0  0  0  0  0  0  0  0  0  0
   -1.5000    0.0000    0.0000 C   0  0  0  0  0  0  0  0  0  0  0  0
   -0.7500    1.2990    0.0000 C   0  0  0  0  0  0  0  0  0  0  0  0
   -1.5000    2.5981    0.0000 C   0  0  0  0  0  0  0  0  0  0  0  0
   -0.7500    3.8971    0.0000 C   0  0  0  0  0  0  0  0  0  0  0  0
   -1.5000    5.1962    0.0000 C   0  0  0  0  0  0  0  0  0  0  0  0
   -0.7500    6.4952    0.0000 O   0  0  0  0  0  0  0  0  0  0  0  0
   -3.0000    5.1962    0.0000 N   0  0  0  0  0  0  0  0  0  0  0  0
   -3.7500    6.4952    0.0000 C   0  0  0  0  0  0  0  0  0  0  0  0
   -3.0000    7.7942    0.0000 C   0  0  0  0  0  0  0  0  0  0  0  0
   -3.7500    9.0933    0.0000 C   0  0  0  0  0  0  0  0  0  0  0  0
   -5.2500    9.0933    0.0000 C   0  0  0  0  0  0  0  0  0  0  0  0
   -6.0000   10.3923    0.0000 F   0  0  0  0  0  0  0  0  0  0  0  0
   -6.0000    7.7942    0.0000 C   0  0  0  0  0  0  0  0  0  0  0  0
   -7.5000    7.7942    0.0000 Cl  0  0  0  0  0  0  0  0  0  0  0  0
   -5.2500    6.4952    0.0000 C   0  0  0  0  0  0  0  0  0  0  0  0
   -3.7500    3.8971    0.0000 N   0  0  0  0  0  0  0  0  0  0  0  0
   -3.0000    2.5981    0.0000 C   0  0  0  0  0  0  0  0  0  0  0  0
   -3.7500    1.2990    0.0000 C   0  0  0  0  0  0  0  0  0  0  0  0
    0.7500    1.2990    0.0000 C   0  0  0  0  0  0  0  0  0  0  0  0
  1  2  1  0
  2  3  1  0
  3  4  2  0
  3  5  2  0
  3  6  1  0
  6  7  1  0
  7  8  2  0
  8  9  1  0
  9 10  2  0
 10 11  1  0
 11 12  1  0
 12 13  2  0
 13 14  1  0
 14 15  2  0
 14 16  1  0
 16 17  1  0
 17 18  2  0
 18 19  1  0
 19 20  2  0
 20 21  1  0
 20 22  1  0
 22 23  1  0
 22 24  2  0
 16 25  1  0
 25 26  2  0
 26 27  1  0
 11 28  2  0
 28  7  1  0
 26 12  1  0
 24 17  1  0
M  END
>  <assay_chembl_id>  (406) 
CHEMBL2399205

>  <assay_description>  (406) 
Inhibition of androgen receptor in human LNCAP cells after 1 day by luciferase reporter gene assay

>  <parent_molecule_chembl_id>  (406) 
CHEMBL2397336

>  <canonical_smiles>  (406) 
CCS(=O)(=O)Nc1cccc(-c2cc(=O)n(-c3ccc(F)c(Cl)c3)nc2C)c1

>  <standard_type>  (406) 
IC50

>  <standard_relation>  (406) 
=

>  <standard_value>  (406) 
5070.0

>  <standard_units>  (406) 
nM

>  <target_pref_name>  (406) 
Androgen Receptor

>  <target_chembl_id>  (406) 
CHEMBL1871

>  <target_organism>  (406) 
Homo sapiens

>  <pchembl_median>  (406) 
6.85

$$$$
CHEMBL2397335
     RDKit          2D

 28 30  0  0  0  0  0  0  0  0999 V2000
    3.7500   -3.8971    0.0000 C   0  0  0  0  0  0  0  0  0  0  0  0
    4.5000   -2.5981    0.0000 C   0  0  0  0  0  0  0  0  0  0  0  0
    3.7500   -1.2990    0.0000 S   0  0  0  0  0  0  0  0  0  0  0  0
    2.4510   -2.0490    0.0000 O   0  0  0  0  0  0  0  0  0  0  0  0
    5.0490   -0.5490    0.0000 O   0  0  0  0  0  0  0  0  0  0  0  0
    3.0000    0.0000    0.0000 N   0  0  0  0  0  0  0  0  0  0  0  0
    1.5000    0.0000    0.0000 C   0  0  0  0  0  0  0  0  0  0  0  0
    0.7500   -1.2990    0.0000 C   0  0  0  0  0  0  0  0  0  0  0  0
   -0.7500   -1.2990    0.0000 C   0  0  0  0  0  0  0  0  0  0  0  0
   -1.5000    0.0000    0.0000 C   0  0  0  0  0  0  0  0  0  0  0  0
   -0.7500    1.2990    0.0000 C   0  0  0  0  0  0  0  0  0  0  0  0
   -1.5000    2.5981    0.0000 C   0  0  0  0  0  0  0  0  0  0  0  0
   -0.7500    3.8971    0.0000 C   0  0  0  0  0  0  0  0  0  0  0  0
   -1.5000    5.1962    0.0000 C   0  0  0  0  0  0  0  0  0  0  0  0
   -0.7500    6.4952    0.0000 O   0  0  0  0  0  0  0  0  0  0  0  0
   -3.0000    5.1962    0.0000 N   0  0  0  0  0  0  0  0  0  0  0  0
   -3.7500    6.4952    0.0000 C   0  0  0  0  0  0  0  0  0  0  0  0
   -3.0000    7.7942    0.0000 C   0  0  0  0  0  0  0  0  0  0  0  0
   -3.7500    9.0933    0.0000 C   0  0  0  0  0  0  0  0  0  0  0  0
   -3.0000   10.3923    0.0000 Cl  0  0  0  0  0  0  0  0  0  0  0  0
   -5.2500    9.0933    0.0000 C   0  0  0  0  0  0  0  0  0  0  0  0
   -6.0000    7.7942    0.0000 C   0  0  0  0  0  0  0  0  0  0  0  0
   -7.5000    7.7942    0.0000 Cl  0  0  0  0  0  0  0  0  0  0  0  0
   -5.2500    6.4952    0.0000 C   0  0  0  0  0  0  0  0  0  0  0  0
   -3.7500    3.8971    0.0000 N   0  0  0  0  0  0  0  0  0  0  0  0
   -3.0000    2.5981    0.0000 C   0  0  0  0  0  0  0  0  0  0  0  0
   -3.7500    1.2990    0.0000 C   0  0  0  0  0  0  0  0  0  0  0  0
    0.7500    1.2990    0.0000 C   0  0  0  0  0  0  0  0  0  0  0  0
  1  2  1  0
  2  3  1  0
  3  4  2  0
  3  5  2  0
  3  6  1  0
  6  7  1  0
  7  8  2  0
  8  9  1  0
  9 10  2  0
 10 11  1  0
 11 12  1  0
 12 13  2  0
 13 14  1  0
 14 15  2  0
 14 16  1  0
 16 17  1  0
 17 18  2  0
 18 19  1  0
 19 20  1  0
 19 21  2  0
 21 22  1  0
 22 23  1  0
 22 24  2  0
 16 25  1  0
 25 26  2  0
 26 27  1  0
 11 28  2  0
 28  7  1  0
 26 12  1  0
 24 17  1  0
M  END
>  <assay_chembl_id>  (407) 
CHEMBL2399205

>  <assay_description>  (407) 
Inhibition of androgen receptor in human LNCAP cells after 1 day by luciferase reporter gene assay

>  <parent_molecule_chembl_id>  (407) 
CHEMBL2397335

>  <canonical_smiles>  (407) 
CCS(=O)(=O)Nc1cccc(-c2cc(=O)n(-c3cc(Cl)cc(Cl)c3)nc2C)c1

>  <standard_type>  (407) 
IC50

>  <standard_relation>  (407) 
=

>  <standard_value>  (407) 
13190.0

>  <standard_units>  (407) 
nM

>  <target_pref_name>  (407) 
Androgen Receptor

>  <target_chembl_id>  (407) 
CHEMBL1871

>  <target_organism>  (407) 
Homo sapiens

>  <pchembl_median>  (407) 
6.0

$$$$
CHEMBL2397334
     RDKit          2D

 28 30  0  0  0  0  0  0  0  0999 V2000
    3.7500   -3.8971    0.0000 C   0  0  0  0  0  0  0  0  0  0  0  0
    4.5000   -2.5981    0.0000 C   0  0  0  0  0  0  0  0  0  0  0  0
    3.7500   -1.2990    0.0000 S   0  0  0  0  0  0  0  0  0  0  0  0
    2.4510   -2.0490    0.0000 O   0  0  0  0  0  0  0  0  0  0  0  0
    5.0490   -0.5490    0.0000 O   0  0  0  0  0  0  0  0  0  0  0  0
    3.0000    0.0000    0.0000 N   0  0  0  0  0  0  0  0  0  0  0  0
    1.5000    0.0000    0.0000 C   0  0  0  0  0  0  0  0  0  0  0  0
    0.7500   -1.2990    0.0000 C   0  0  0  0  0  0  0  0  0  0  0  0
   -0.7500   -1.2990    0.0000 C   0  0  0  0  0  0  0  0  0  0  0  0
   -1.5000    0.0000    0.0000 C   0  0  0  0  0  0  0  0  0  0  0  0
   -0.7500    1.2990    0.0000 C   0  0  0  0  0  0  0  0  0  0  0  0
   -1.5000    2.5981    0.0000 C   0  0  0  0  0  0  0  0  0  0  0  0
   -0.7500    3.8971    0.0000 C   0  0  0  0  0  0  0  0  0  0  0  0
   -1.5000    5.1962    0.0000 C   0  0  0  0  0  0  0  0  0  0  0  0
   -0.7500    6.4952    0.0000 O   0  0  0  0  0  0  0  0  0  0  0  0
   -3.0000    5.1962    0.0000 N   0  0  0  0  0  0  0  0  0  0  0  0
   -3.7500    6.4952    0.0000 C   0  0  0  0  0  0  0  0  0  0  0  0
   -3.0000    7.7942    0.0000 C   0  0  0  0  0  0  0  0  0  0  0  0
   -3.7500    9.0933    0.0000 C   0  0  0  0  0  0  0  0  0  0  0  0
   -5.2500    9.0933    0.0000 C   0  0  0  0  0  0  0  0  0  0  0  0
   -6.0000   10.3923    0.0000 Cl  0  0  0  0  0  0  0  0  0  0  0  0
   -6.0000    7.7942    0.0000 C   0  0  0  0  0  0  0  0  0  0  0  0
   -7.5000    7.7942    0.0000 Cl  0  0  0  0  0  0  0  0  0  0  0  0
   -5.2500    6.4952    0.0000 C   0  0  0  0  0  0  0  0  0  0  0  0
   -3.7500    3.8971    0.0000 N   0  0  0  0  0  0  0  0  0  0  0  0
   -3.0000    2.5981    0.0000 C   0  0  0  0  0  0  0  0  0  0  0  0
   -3.7500    1.2990    0.0000 C   0  0  0  0  0  0  0  0  0  0  0  0
    0.7500    1.2990    0.0000 C   0  0  0  0  0  0  0  0  0  0  0  0
  1  2  1  0
  2  3  1  0
  3  4  2  0
  3  5  2  0
  3  6  1  0
  6  7  1  0
  7  8  2  0
  8  9  1  0
  9 10  2  0
 10 11  1  0
 11 12  1  0
 12 13  2  0
 13 14  1  0
 14 15  2  0
 14 16  1  0
 16 17  1  0
 17 18  2  0
 18 19  1  0
 19 20  2  0
 20 21  1  0
 20 22  1  0
 22 23  1  0
 22 24  2  0
 16 25  1  0
 25 26  2  0
 26 27  1  0
 11 28  2  0
 28  7  1  0
 26 12  1  0
 24 17  1  0
M  END
>  <assay_chembl_id>  (408) 
CHEMBL2399205

>  <assay_description>  (408) 
Inhibition of androgen receptor in human LNCAP cells after 1 day by luciferase reporter gene assay

>  <parent_molecule_chembl_id>  (408) 
CHEMBL2397334

>  <canonical_smiles>  (408) 
CCS(=O)(=O)Nc1cccc(-c2cc(=O)n(-c3ccc(Cl)c(Cl)c3)nc2C)c1

>  <standard_type>  (408) 
IC50

>  <standard_relation>  (408) 
=

>  <standard_value>  (408) 
2650.0

>  <standard_units>  (408) 
nM

>  <target_pref_name>  (408) 
Androgen Receptor

>  <target_chembl_id>  (408) 
CHEMBL1871

>  <target_organism>  (408) 
Homo sapiens

>  <pchembl_median>  (408) 
7.38

$$$$
CHEMBL2397333
     RDKit          2D

 28 30  0  0  0  0  0  0  0  0999 V2000
    3.7500   -3.8971    0.0000 C   0  0  0  0  0  0  0  0  0  0  0  0
    4.5000   -2.5981    0.0000 C   0  0  0  0  0  0  0  0  0  0  0  0
    3.7500   -1.2990    0.0000 S   0  0  0  0  0  0  0  0  0  0  0  0
    2.4510   -2.0490    0.0000 O   0  0  0  0  0  0  0  0  0  0  0  0
    5.0490   -0.5490    0.0000 O   0  0  0  0  0  0  0  0  0  0  0  0
    3.0000    0.0000    0.0000 N   0  0  0  0  0  0  0  0  0  0  0  0
    1.5000    0.0000    0.0000 C   0  0  0  0  0  0  0  0  0  0  0  0
    0.7500   -1.2990    0.0000 C   0  0  0  0  0  0  0  0  0  0  0  0
   -0.7500   -1.2990    0.0000 C   0  0  0  0  0  0  0  0  0  0  0  0
   -1.5000    0.0000    0.0000 C   0  0  0  0  0  0  0  0  0  0  0  0
   -0.7500    1.2990    0.0000 C   0  0  0  0  0  0  0  0  0  0  0  0
   -1.5000    2.5981    0.0000 C   0  0  0  0  0  0  0  0  0  0  0  0
   -0.7500    3.8971    0.0000 C   0  0  0  0  0  0  0  0  0  0  0  0
   -1.5000    5.1962    0.0000 C   0  0  0  0  0  0  0  0  0  0  0  0
   -0.7500    6.4952    0.0000 O   0  0  0  0  0  0  0  0  0  0  0  0
   -3.0000    5.1962    0.0000 N   0  0  0  0  0  0  0  0  0  0  0  0
   -3.7500    6.4952    0.0000 C   0  0  0  0  0  0  0  0  0  0  0  0
   -3.0000    7.7942    0.0000 C   0  0  0  0  0  0  0  0  0  0  0  0
   -3.7500    9.0933    0.0000 C   0  0  0  0  0  0  0  0  0  0  0  0
   -5.2500    9.0933    0.0000 C   0  0  0  0  0  0  0  0  0  0  0  0
   -6.0000   10.3923    0.0000 C   0  0  0  0  0  0  0  0  0  0  0  0
   -6.7500   11.6913    0.0000 N   0  0  0  0  0  0  0  0  0  0  0  0
   -6.0000    7.7942    0.0000 C   0  0  0  0  0  0  0  0  0  0  0  0
   -5.2500    6.4952    0.0000 C   0  0  0  0  0  0  0  0  0  0  0  0
   -3.7500    3.8971    0.0000 N   0  0  0  0  0  0  0  0  0  0  0  0
   -3.0000    2.5981    0.0000 C   0  0  0  0  0  0  0  0  0  0  0  0
   -3.7500    1.2990    0.0000 C   0  0  0  0  0  0  0  0  0  0  0  0
    0.7500    1.2990    0.0000 C   0  0  0  0  0  0  0  0  0  0  0  0
  1  2  1  0
  2  3  1  0
  3  4  2  0
  3  5  2  0
  3  6  1  0
  6  7  1  0
  7  8  2  0
  8  9  1  0
  9 10  2  0
 10 11  1  0
 11 12  1  0
 12 13  2  0
 13 14  1  0
 14 15  2  0
 14 16  1  0
 16 17  1  0
 17 18  2  0
 18 19  1  0
 19 20  2  0
 20 21  1  0
 21 22  3  0
 20 23  1  0
 23 24  2  0
 16 25  1  0
 25 26  2  0
 26 27  1  0
 11 28  2  0
 28  7  1  0
 26 12  1  0
 24 17  1  0
M  END
>  <assay_chembl_id>  (409) 
CHEMBL2399205

>  <assay_description>  (409) 
Inhibition of androgen receptor in human LNCAP cells after 1 day by luciferase reporter gene assay

>  <parent_molecule_chembl_id>  (409) 
CHEMBL2397333

>  <canonical_smiles>  (409) 
CCS(=O)(=O)Nc1cccc(-c2cc(=O)n(-c3ccc(C#N)cc3)nc2C)c1

>  <standard_type>  (409) 
IC50

>  <standard_relation>  (409) 
=

>  <standard_value>  (409) 
6260.0

>  <standard_units>  (409) 
nM

>  <target_pref_name>  (409) 
Androgen Receptor

>  <target_chembl_id>  (409) 
CHEMBL1871

>  <target_organism>  (409) 
Homo sapiens

>  <pchembl_median>  (409) 
6.0

$$$$
CHEMBL2403356
     RDKit          2D

 23 24  0  0  0  0  0  0  0  0999 V2000
    5.3971   -1.8481    0.0000 C   0  0  0  0  0  0  0  0  0  0  0  0
    4.0981   -2.5981    0.0000 C   0  0  0  0  0  0  0  0  0  0  0  0
    2.7990   -1.8481    0.0000 C   0  0  0  0  0  0  0  0  0  0  0  0
    1.5000   -2.5981    0.0000 C   0  0  0  0  0  0  0  0  0  0  0  0
    0.2010   -3.3481    0.0000 C   0  0  0  0  0  0  0  0  0  0  0  0
    0.2010   -4.8481    0.0000 C   0  0  0  0  0  0  0  0  0  0  0  0
   -1.0981   -5.5981    0.0000 C   0  0  0  0  0  0  0  0  0  0  0  0
    0.7500   -1.2990    0.0000 C   0  0  0  0  0  0  0  0  0  0  0  0
    1.5000    0.0000    0.0000 C   0  0  0  0  0  0  0  0  0  0  0  0
    0.7500    1.2990    0.0000 C   0  0  0  0  0  0  0  0  0  0  0  0
   -0.7500    1.2990    0.0000 C   0  0  0  0  0  0  0  0  0  0  0  0
   -1.5000    2.5981    0.0000 O   0  0  0  0  0  0  0  0  0  0  0  0
   -1.5000    0.0000    0.0000 C   0  0  0  0  0  0  0  0  0  0  0  0
   -3.0000    0.0000    0.0000 C   0  0  0  0  0  0  0  0  0  0  0  0
   -0.7500   -1.2990    0.0000 C   0  0  0  0  0  0  0  0  0  0  0  0
    2.2500   -3.8971    0.0000 C   0  0  0  0  0  0  0  0  0  0  0  0
    1.5000   -5.1962    0.0000 C   0  0  0  0  0  0  0  0  0  0  0  0
    2.2500   -6.4952    0.0000 C   0  0  0  0  0  0  0  0  0  0  0  0
    3.7500   -6.4952    0.0000 C   0  0  0  0  0  0  0  0  0  0  0  0
    4.5000   -7.7942    0.0000 O   0  0  0  0  0  0  0  0  0  0  0  0
    4.5000   -5.1962    0.0000 C   0  0  0  0  0  0  0  0  0  0  0  0
    6.0000   -5.1962    0.0000 C   0  0  0  0  0  0  0  0  0  0  0  0
    3.7500   -3.8971    0.0000 C   0  0  0  0  0  0  0  0  0  0  0  0
  1  2  1  0
  2  3  1  0
  3  4  1  0
  4  5  1  0
  5  6  1  0
  6  7  1  0
  4  8  1  0
  8  9  2  0
  9 10  1  0
 10 11  2  0
 11 12  1  0
 11 13  1  0
 13 14  1  0
 13 15  2  0
  4 16  1  0
 16 17  2  0
 17 18  1  0
 18 19  2  0
 19 20  1  0
 19 21  1  0
 21 22  1  0
 21 23  2  0
 15  8  1  0
 23 16  1  0
M  END
>  <assay_chembl_id>  (410) 
CHEMBL2405557

>  <assay_description>  (410) 
Antagonist activity at human pSG5-AR assessed as inhibition of dihydrotestosterone-induced effect by reporter gene assay

>  <parent_molecule_chembl_id>  (410) 
CHEMBL2403356

>  <canonical_smiles>  (410) 
CCCC(CCC)(c1ccc(O)c(C)c1)c1ccc(O)c(C)c1

>  <standard_type>  (410) 
IC50

>  <standard_relation>  (410) 
=

>  <standard_value>  (410) 
25000.0

>  <standard_units>  (410) 
nM

>  <target_pref_name>  (410) 
Androgen Receptor

>  <target_chembl_id>  (410) 
CHEMBL1871

>  <target_organism>  (410) 
Homo sapiens

>  <pchembl_median>  (410) 
7.43

$$$$
CHEMBL2403350
     RDKit          2D

 25 26  0  0  0  0  0  0  0  0999 V2000
    6.6962   -2.5981    0.0000 C   0  0  0  0  0  0  0  0  0  0  0  0
    5.3971   -1.8481    0.0000 C   0  0  0  0  0  0  0  0  0  0  0  0
    4.0981   -2.5981    0.0000 C   0  0  0  0  0  0  0  0  0  0  0  0
    2.7990   -1.8481    0.0000 C   0  0  0  0  0  0  0  0  0  0  0  0
    1.5000   -2.5981    0.0000 Si  0  0  0  0  0  4  0  0  0  0  0  0
    0.2010   -3.3481    0.0000 C   0  0  0  0  0  0  0  0  0  0  0  0
    0.2010   -4.8481    0.0000 C   0  0  0  0  0  0  0  0  0  0  0  0
   -1.0981   -5.5981    0.0000 C   0  0  0  0  0  0  0  0  0  0  0  0
   -1.0981   -7.0981    0.0000 C   0  0  0  0  0  0  0  0  0  0  0  0
    0.7500   -1.2990    0.0000 C   0  0  0  0  0  0  0  0  0  0  0  0
    1.5000    0.0000    0.0000 C   0  0  0  0  0  0  0  0  0  0  0  0
    0.7500    1.2990    0.0000 C   0  0  0  0  0  0  0  0  0  0  0  0
   -0.7500    1.2990    0.0000 C   0  0  0  0  0  0  0  0  0  0  0  0
   -1.5000    2.5981    0.0000 O   0  0  0  0  0  0  0  0  0  0  0  0
   -1.5000    0.0000    0.0000 C   0  0  0  0  0  0  0  0  0  0  0  0
   -3.0000    0.0000    0.0000 C   0  0  0  0  0  0  0  0  0  0  0  0
   -0.7500   -1.2990    0.0000 C   0  0  0  0  0  0  0  0  0  0  0  0
    2.2500   -3.8971    0.0000 C   0  0  0  0  0  0  0  0  0  0  0  0
    1.5000   -5.1962    0.0000 C   0  0  0  0  0  0  0  0  0  0  0  0
    2.2500   -6.4952    0.0000 C   0  0  0  0  0  0  0  0  0  0  0  0
    3.7500   -6.4952    0.0000 C   0  0  0  0  0  0  0  0  0  0  0  0
    4.5000   -7.7942    0.0000 O   0  0  0  0  0  0  0  0  0  0  0  0
    4.5000   -5.1962    0.0000 C   0  0  0  0  0  0  0  0  0  0  0  0
    6.0000   -5.1962    0.0000 C   0  0  0  0  0  0  0  0  0  0  0  0
    3.7500   -3.8971    0.0000 C   0  0  0  0  0  0  0  0  0  0  0  0
  1  2  1  0
  2  3  1  0
  3  4  1  0
  4  5  1  0
  5  6  1  0
  6  7  1  0
  7  8  1  0
  8  9  1  0
  5 10  1  0
 10 11  2  0
 11 12  1  0
 12 13  2  0
 13 14  1  0
 13 15  1  0
 15 16  1  0
 15 17  2  0
  5 18  1  0
 18 19  2  0
 19 20  1  0
 20 21  2  0
 21 22  1  0
 21 23  1  0
 23 24  1  0
 23 25  2  0
 17 10  1  0
 25 18  1  0
M  END
>  <assay_chembl_id>  (411) 
CHEMBL2405557

>  <assay_description>  (411) 
Antagonist activity at human pSG5-AR assessed as inhibition of dihydrotestosterone-induced effect by reporter gene assay

>  <parent_molecule_chembl_id>  (411) 
CHEMBL2403350

>  <canonical_smiles>  (411) 
CCCC[Si](CCCC)(c1ccc(O)c(C)c1)c1ccc(O)c(C)c1

>  <standard_type>  (411) 
IC50

>  <standard_relation>  (411) 
=

>  <standard_value>  (411) 
8200.0

>  <standard_units>  (411) 
nM

>  <target_pref_name>  (411) 
Androgen Receptor

>  <target_chembl_id>  (411) 
CHEMBL1871

>  <target_organism>  (411) 
Homo sapiens

>  <pchembl_median>  (411) 
5.75

$$$$
CHEMBL418971
     RDKit          2D

 17 18  0  0  0  0  0  0  0  0999 V2000
    2.7990   -1.8481    0.0000 C   0  0  0  0  0  0  0  0  0  0  0  0
    1.5000   -2.5981    0.0000 C   0  0  0  0  0  0  0  0  0  0  0  0
    0.2010   -3.3481    0.0000 C   0  0  0  0  0  0  0  0  0  0  0  0
    0.7500   -1.2990    0.0000 C   0  0  0  0  0  0  0  0  0  0  0  0
    1.5000    0.0000    0.0000 C   0  0  0  0  0  0  0  0  0  0  0  0
    0.7500    1.2990    0.0000 C   0  0  0  0  0  0  0  0  0  0  0  0
   -0.7500    1.2990    0.0000 C   0  0  0  0  0  0  0  0  0  0  0  0
   -1.5000    2.5981    0.0000 O   0  0  0  0  0  0  0  0  0  0  0  0
   -1.5000    0.0000    0.0000 C   0  0  0  0  0  0  0  0  0  0  0  0
   -0.7500   -1.2990    0.0000 C   0  0  0  0  0  0  0  0  0  0  0  0
    2.2500   -3.8971    0.0000 C   0  0  0  0  0  0  0  0  0  0  0  0
    1.5000   -5.1962    0.0000 C   0  0  0  0  0  0  0  0  0  0  0  0
    2.2500   -6.4952    0.0000 C   0  0  0  0  0  0  0  0  0  0  0  0
    3.7500   -6.4952    0.0000 C   0  0  0  0  0  0  0  0  0  0  0  0
    4.5000   -7.7942    0.0000 O   0  0  0  0  0  0  0  0  0  0  0  0
    4.5000   -5.1962    0.0000 C   0  0  0  0  0  0  0  0  0  0  0  0
    3.7500   -3.8971    0.0000 C   0  0  0  0  0  0  0  0  0  0  0  0
  1  2  1  0
  2  3  1  0
  2  4  1  0
  4  5  2  0
  5  6  1  0
  6  7  2  0
  7  8  1  0
  7  9  1  0
  9 10  2  0
  2 11  1  0
 11 12  2  0
 12 13  1  0
 13 14  2  0
 14 15  1  0
 14 16  1  0
 16 17  2  0
 10  4  1  0
 17 11  1  0
M  END
>  <assay_chembl_id>  (412) 
CHEMBL2405557

>  <assay_description>  (412) 
Antagonist activity at human pSG5-AR assessed as inhibition of dihydrotestosterone-induced effect by reporter gene assay

>  <parent_molecule_chembl_id>  (412) 
CHEMBL418971

>  <canonical_smiles>  (412) 
CC(C)(c1ccc(O)cc1)c1ccc(O)cc1

>  <standard_type>  (412) 
IC50

>  <standard_relation>  (412) 
=

>  <standard_value>  (412) 
5900.0

>  <standard_units>  (412) 
nM

>  <target_pref_name>  (412) 
Androgen Receptor

>  <target_chembl_id>  (412) 
CHEMBL1871

>  <target_organism>  (412) 
Homo sapiens

>  <pchembl_median>  (412) 
5.42

$$$$
CHEMBL2403348
     RDKit          2D

 21 22  0  0  0  0  0  0  0  0999 V2000
    4.0981   -2.5981    0.0000 C   0  0  0  0  0  0  0  0  0  0  0  0
    2.7990   -1.8481    0.0000 C   0  0  0  0  0  0  0  0  0  0  0  0
    1.5000   -2.5981    0.0000 C   0  0  0  0  0  0  0  0  0  0  0  0
    0.2010   -3.3481    0.0000 C   0  0  0  0  0  0  0  0  0  0  0  0
    0.2010   -4.8481    0.0000 C   0  0  0  0  0  0  0  0  0  0  0  0
    0.7500   -1.2990    0.0000 C   0  0  0  0  0  0  0  0  0  0  0  0
    1.5000    0.0000    0.0000 C   0  0  0  0  0  0  0  0  0  0  0  0
    0.7500    1.2990    0.0000 C   0  0  0  0  0  0  0  0  0  0  0  0
   -0.7500    1.2990    0.0000 C   0  0  0  0  0  0  0  0  0  0  0  0
   -1.5000    2.5981    0.0000 N   0  0  0  0  0  0  0  0  0  0  0  0
   -1.5000    0.0000    0.0000 C   0  0  0  0  0  0  0  0  0  0  0  0
   -3.0000    0.0000    0.0000 C   0  0  0  0  0  0  0  0  0  0  0  0
   -0.7500   -1.2990    0.0000 C   0  0  0  0  0  0  0  0  0  0  0  0
    2.2500   -3.8971    0.0000 C   0  0  0  0  0  0  0  0  0  0  0  0
    1.5000   -5.1962    0.0000 C   0  0  0  0  0  0  0  0  0  0  0  0
    2.2500   -6.4952    0.0000 C   0  0  0  0  0  0  0  0  0  0  0  0
    3.7500   -6.4952    0.0000 C   0  0  0  0  0  0  0  0  0  0  0  0
    4.5000   -7.7942    0.0000 O   0  0  0  0  0  0  0  0  0  0  0  0
    4.5000   -5.1962    0.0000 C   0  0  0  0  0  0  0  0  0  0  0  0
    6.0000   -5.1962    0.0000 C   0  0  0  0  0  0  0  0  0  0  0  0
    3.7500   -3.8971    0.0000 C   0  0  0  0  0  0  0  0  0  0  0  0
  1  2  1  0
  2  3  1  0
  3  4  1  0
  4  5  1  0
  3  6  1  0
  6  7  2  0
  7  8  1  0
  8  9  2  0
  9 10  1  0
  9 11  1  0
 11 12  1  0
 11 13  2  0
  3 14  1  0
 14 15  2  0
 15 16  1  0
 16 17  2  0
 17 18  1  0
 17 19  1  0
 19 20  1  0
 19 21  2  0
 13  6  1  0
 21 14  1  0
M  END
>  <assay_chembl_id>  (413) 
CHEMBL2405557

>  <assay_description>  (413) 
Antagonist activity at human pSG5-AR assessed as inhibition of dihydrotestosterone-induced effect by reporter gene assay

>  <parent_molecule_chembl_id>  (413) 
CHEMBL2403348

>  <canonical_smiles>  (413) 
CCC(CC)(c1ccc(N)c(C)c1)c1ccc(O)c(C)c1

>  <standard_type>  (413) 
IC50

>  <standard_relation>  (413) 
=

>  <standard_value>  (413) 
5400.0

>  <standard_units>  (413) 
nM

>  <target_pref_name>  (413) 
Androgen Receptor

>  <target_chembl_id>  (413) 
CHEMBL1871

>  <target_organism>  (413) 
Homo sapiens

>  <pchembl_median>  (413) 
5.84

$$$$
CHEMBL2403355
     RDKit          2D

 21 22  0  0  0  0  0  0  0  0999 V2000
    4.0981   -2.5981    0.0000 C   0  0  0  0  0  0  0  0  0  0  0  0
    2.7990   -1.8481    0.0000 C   0  0  0  0  0  0  0  0  0  0  0  0
    1.5000   -2.5981    0.0000 C   0  0  0  0  0  0  0  0  0  0  0  0
    0.2010   -3.3481    0.0000 C   0  0  0  0  0  0  0  0  0  0  0  0
    0.2010   -4.8481    0.0000 C   0  0  0  0  0  0  0  0  0  0  0  0
    0.7500   -1.2990    0.0000 C   0  0  0  0  0  0  0  0  0  0  0  0
    1.5000    0.0000    0.0000 C   0  0  0  0  0  0  0  0  0  0  0  0
    0.7500    1.2990    0.0000 C   0  0  0  0  0  0  0  0  0  0  0  0
   -0.7500    1.2990    0.0000 C   0  0  0  0  0  0  0  0  0  0  0  0
   -1.5000    2.5981    0.0000 O   0  0  0  0  0  0  0  0  0  0  0  0
   -1.5000    0.0000    0.0000 C   0  0  0  0  0  0  0  0  0  0  0  0
   -3.0000    0.0000    0.0000 C   0  0  0  0  0  0  0  0  0  0  0  0
   -0.7500   -1.2990    0.0000 C   0  0  0  0  0  0  0  0  0  0  0  0
    2.2500   -3.8971    0.0000 C   0  0  0  0  0  0  0  0  0  0  0  0
    1.5000   -5.1962    0.0000 C   0  0  0  0  0  0  0  0  0  0  0  0
    2.2500   -6.4952    0.0000 C   0  0  0  0  0  0  0  0  0  0  0  0
    3.7500   -6.4952    0.0000 C   0  0  0  0  0  0  0  0  0  0  0  0
    4.5000   -7.7942    0.0000 O   0  0  0  0  0  0  0  0  0  0  0  0
    4.5000   -5.1962    0.0000 C   0  0  0  0  0  0  0  0  0  0  0  0
    6.0000   -5.1962    0.0000 C   0  0  0  0  0  0  0  0  0  0  0  0
    3.7500   -3.8971    0.0000 C   0  0  0  0  0  0  0  0  0  0  0  0
  1  2  1  0
  2  3  1  0
  3  4  1  0
  4  5  1  0
  3  6  1  0
  6  7  2  0
  7  8  1  0
  8  9  2  0
  9 10  1  0
  9 11  1  0
 11 12  1  0
 11 13  2  0
  3 14  1  0
 14 15  2  0
 15 16  1  0
 16 17  2  0
 17 18  1  0
 17 19  1  0
 19 20  1  0
 19 21  2  0
 13  6  1  0
 21 14  1  0
M  END
>  <assay_chembl_id>  (414) 
CHEMBL2405557

>  <assay_description>  (414) 
Antagonist activity at human pSG5-AR assessed as inhibition of dihydrotestosterone-induced effect by reporter gene assay

>  <parent_molecule_chembl_id>  (414) 
CHEMBL2403355

>  <canonical_smiles>  (414) 
CCC(CC)(c1ccc(O)c(C)c1)c1ccc(O)c(C)c1

>  <standard_type>  (414) 
IC50

>  <standard_relation>  (414) 
=

>  <standard_value>  (414) 
4500.0

>  <standard_units>  (414) 
nM

>  <target_pref_name>  (414) 
Androgen Receptor

>  <target_chembl_id>  (414) 
CHEMBL1871

>  <target_organism>  (414) 
Homo sapiens

>  <pchembl_median>  (414) 
7.85

$$$$
CHEMBL2403349
     RDKit          2D

 21 22  0  0  0  0  0  0  0  0999 V2000
    4.0981   -2.5981    0.0000 C   0  0  0  0  0  0  0  0  0  0  0  0
    2.7990   -1.8481    0.0000 C   0  0  0  0  0  0  0  0  0  0  0  0
    1.5000   -2.5981    0.0000 Si  0  0  0  0  0  4  0  0  0  0  0  0
    0.2010   -3.3481    0.0000 C   0  0  0  0  0  0  0  0  0  0  0  0
    0.2010   -4.8481    0.0000 C   0  0  0  0  0  0  0  0  0  0  0  0
    0.7500   -1.2990    0.0000 C   0  0  0  0  0  0  0  0  0  0  0  0
    1.5000    0.0000    0.0000 C   0  0  0  0  0  0  0  0  0  0  0  0
    0.7500    1.2990    0.0000 C   0  0  0  0  0  0  0  0  0  0  0  0
   -0.7500    1.2990    0.0000 C   0  0  0  0  0  0  0  0  0  0  0  0
   -1.5000    2.5981    0.0000 O   0  0  0  0  0  0  0  0  0  0  0  0
   -1.5000    0.0000    0.0000 C   0  0  0  0  0  0  0  0  0  0  0  0
   -3.0000    0.0000    0.0000 C   0  0  0  0  0  0  0  0  0  0  0  0
   -0.7500   -1.2990    0.0000 C   0  0  0  0  0  0  0  0  0  0  0  0
    2.2500   -3.8971    0.0000 C   0  0  0  0  0  0  0  0  0  0  0  0
    1.5000   -5.1962    0.0000 C   0  0  0  0  0  0  0  0  0  0  0  0
    2.2500   -6.4952    0.0000 C   0  0  0  0  0  0  0  0  0  0  0  0
    3.7500   -6.4952    0.0000 C   0  0  0  0  0  0  0  0  0  0  0  0
    4.5000   -7.7942    0.0000 O   0  0  0  0  0  0  0  0  0  0  0  0
    4.5000   -5.1962    0.0000 C   0  0  0  0  0  0  0  0  0  0  0  0
    6.0000   -5.1962    0.0000 C   0  0  0  0  0  0  0  0  0  0  0  0
    3.7500   -3.8971    0.0000 C   0  0  0  0  0  0  0  0  0  0  0  0
  1  2  1  0
  2  3  1  0
  3  4  1  0
  4  5  1  0
  3  6  1  0
  6  7  2  0
  7  8  1  0
  8  9  2  0
  9 10  1  0
  9 11  1  0
 11 12  1  0
 11 13  2  0
  3 14  1  0
 14 15  2  0
 15 16  1  0
 16 17  2  0
 17 18  1  0
 17 19  1  0
 19 20  1  0
 19 21  2  0
 13  6  1  0
 21 14  1  0
M  END
>  <assay_chembl_id>  (415) 
CHEMBL2405557

>  <assay_description>  (415) 
Antagonist activity at human pSG5-AR assessed as inhibition of dihydrotestosterone-induced effect by reporter gene assay

>  <parent_molecule_chembl_id>  (415) 
CHEMBL2403349

>  <canonical_smiles>  (415) 
CC[Si](CC)(c1ccc(O)c(C)c1)c1ccc(O)c(C)c1

>  <standard_type>  (415) 
IC50

>  <standard_relation>  (415) 
=

>  <standard_value>  (415) 
1900.0

>  <standard_units>  (415) 
nM

>  <target_pref_name>  (415) 
Androgen Receptor

>  <target_chembl_id>  (415) 
CHEMBL1871

>  <target_organism>  (415) 
Homo sapiens

>  <pchembl_median>  (415) 
7.5

$$$$
CHEMBL2441092
     RDKit          2D

 27 29  0  0  0  0  0  0  0  0999 V2000
    3.7500   -1.2990    0.0000 C   0  0  0  0  0  0  0  0  0  0  0  0
    3.0000    0.0000    0.0000 O   0  0  0  0  0  0  0  0  0  0  0  0
    1.5000    0.0000    0.0000 C   0  0  0  0  0  0  0  0  0  0  0  0
    0.7500   -1.2990    0.0000 C   0  0  0  0  0  0  0  0  0  0  0  0
   -0.7500   -1.2990    0.0000 C   0  0  0  0  0  0  0  0  0  0  0  0
   -1.5000    0.0000    0.0000 C   0  0  0  0  0  0  0  0  0  0  0  0
   -0.7500    1.2990    0.0000 C   0  0  0  0  0  0  0  0  0  0  0  0
   -1.5000    2.5981    0.0000 C   0  0  0  0  0  0  0  0  0  0  0  0
   -3.0000    2.5981    0.0000 O   0  0  0  0  0  0  0  0  0  0  0  0
   -0.7500    3.8971    0.0000 N   0  0  0  0  0  0  0  0  0  0  0  0
   -1.5000    5.1962    0.0000 C   0  0  0  0  0  0  0  0  0  0  0  0
   -0.7500    6.4952    0.0000 C   0  0  0  0  0  0  0  0  0  0  0  0
   -1.5000    7.7942    0.0000 C   0  0  0  0  0  0  0  0  0  0  0  0
   -0.7500    9.0933    0.0000 C   0  0  0  0  0  0  0  0  0  0  0  0
   -3.0000    7.7942    0.0000 C   0  0  0  0  0  0  0  0  0  0  0  0
   -3.7500    9.0933    0.0000 O   0  0  0  0  0  0  0  0  0  0  0  0
   -5.2500    9.0933    0.0000 C   0  0  0  0  0  0  0  0  0  0  0  0
   -6.0000   10.3923    0.0000 C   0  0  0  0  0  0  0  0  0  0  0  0
   -7.5000   10.3923    0.0000 C   0  0  0  0  0  0  0  0  0  0  0  0
   -8.2500    9.0933    0.0000 C   0  0  0  0  0  0  0  0  0  0  0  0
   -9.7500    9.0933    0.0000 O   0  0  0  0  0  0  0  0  0  0  0  0
   -7.5000    7.7942    0.0000 C   0  0  0  0  0  0  0  0  0  0  0  0
   -6.0000    7.7942    0.0000 C   0  0  0  0  0  0  0  0  0  0  0  0
   -3.7500    6.4952    0.0000 C   0  0  0  0  0  0  0  0  0  0  0  0
   -5.2500    6.4952    0.0000 C   0  0  0  0  0  0  0  0  0  0  0  0
   -3.0000    5.1962    0.0000 C   0  0  0  0  0  0  0  0  0  0  0  0
    0.7500    1.2990    0.0000 C   0  0  0  0  0  0  0  0  0  0  0  0
  1  2  1  0
  2  3  1  0
  3  4  2  0
  4  5  1  0
  5  6  2  0
  6  7  1  0
  7  8  1  0
  8  9  2  0
  8 10  1  0
 10 11  1  0
 11 12  2  0
 12 13  1  0
 13 14  1  0
 13 15  2  0
 15 16  1  0
 16 17  1  0
 17 18  2  0
 18 19  1  0
 19 20  2  0
 20 21  1  0
 20 22  1  0
 22 23  2  0
 15 24  1  0
 24 25  1  0
 24 26  2  0
  7 27  2  0
 27  3  1  0
 26 11  1  0
 23 17  1  0
M  END
>  <assay_chembl_id>  (416) 
CHEMBL2446673

>  <assay_description>  (416) 
Displacement of [3H]-DHT from human GST-tagged androgen receptor LBD (627 to 919) expressed in Escherichia coli HB-101 after 15 hrs by liquid scintillation counting analysis

>  <parent_molecule_chembl_id>  (416) 
CHEMBL2441092

>  <canonical_smiles>  (416) 
COc1cccc(C(=O)Nc2cc(C)c(Oc3ccc(O)cc3)c(C)c2)c1

>  <standard_type>  (416) 
IC50

>  <standard_relation>  (416) 
=

>  <standard_value>  (416) 
5400.0

>  <standard_units>  (416) 
nM

>  <target_pref_name>  (416) 
Androgen Receptor

>  <target_chembl_id>  (416) 
CHEMBL1871

>  <target_organism>  (416) 
Homo sapiens

>  <pchembl_median>  (416) 
7.52

$$$$
CHEMBL2441107
     RDKit          2D

 25 27  0  0  0  0  0  0  0  0999 V2000
    3.7500   -1.2990    0.0000 C   0  0  0  0  0  0  0  0  0  0  0  0
    3.0000    0.0000    0.0000 O   0  0  0  0  0  0  0  0  0  0  0  0
    1.5000    0.0000    0.0000 C   0  0  0  0  0  0  0  0  0  0  0  0
    0.7500   -1.2990    0.0000 C   0  0  0  0  0  0  0  0  0  0  0  0
   -0.7500   -1.2990    0.0000 C   0  0  0  0  0  0  0  0  0  0  0  0
   -1.5000    0.0000    0.0000 C   0  0  0  0  0  0  0  0  0  0  0  0
   -0.7500    1.2990    0.0000 C   0  0  0  0  0  0  0  0  0  0  0  0
   -1.5000    2.5981    0.0000 C   0  0  0  0  0  0  0  0  0  0  0  0
   -3.0000    2.5981    0.0000 O   0  0  0  0  0  0  0  0  0  0  0  0
   -0.7500    3.8971    0.0000 N   0  0  0  0  0  0  0  0  0  0  0  0
   -1.5000    5.1962    0.0000 C   0  0  0  0  0  0  0  0  0  0  0  0
   -0.7500    6.4952    0.0000 C   0  0  0  0  0  0  0  0  0  0  0  0
   -1.5000    7.7942    0.0000 C   0  0  0  0  0  0  0  0  0  0  0  0
   -3.0000    7.7942    0.0000 C   0  0  0  0  0  0  0  0  0  0  0  0
   -3.7500    9.0933    0.0000 O   0  0  0  0  0  0  0  0  0  0  0  0
   -3.0000   10.3923    0.0000 C   0  0  0  0  0  0  0  0  0  0  0  0
   -1.5000   10.3923    0.0000 C   0  0  0  0  0  0  0  0  0  0  0  0
   -0.7500   11.6913    0.0000 C   0  0  0  0  0  0  0  0  0  0  0  0
   -1.5000   12.9904    0.0000 C   0  0  0  0  0  0  0  0  0  0  0  0
   -0.7500   14.2894    0.0000 O   0  0  0  0  0  0  0  0  0  0  0  0
   -3.0000   12.9904    0.0000 C   0  0  0  0  0  0  0  0  0  0  0  0
   -3.7500   11.6913    0.0000 C   0  0  0  0  0  0  0  0  0  0  0  0
   -3.7500    6.4952    0.0000 C   0  0  0  0  0  0  0  0  0  0  0  0
   -3.0000    5.1962    0.0000 C   0  0  0  0  0  0  0  0  0  0  0  0
    0.7500    1.2990    0.0000 C   0  0  0  0  0  0  0  0  0  0  0  0
  1  2  1  0
  2  3  1  0
  3  4  2  0
  4  5  1  0
  5  6  2  0
  6  7  1  0
  7  8  1  0
  8  9  2  0
  8 10  1  0
 10 11  1  0
 11 12  2  0
 12 13  1  0
 13 14  2  0
 14 15  1  0
 15 16  1  0
 16 17  2  0
 17 18  1  0
 18 19  2  0
 19 20  1  0
 19 21  1  0
 21 22  2  0
 14 23  1  0
 23 24  2  0
  7 25  2  0
 25  3  1  0
 24 11  1  0
 22 16  1  0
M  END
>  <assay_chembl_id>  (417) 
CHEMBL2446673

>  <assay_description>  (417) 
Displacement of [3H]-DHT from human GST-tagged androgen receptor LBD (627 to 919) expressed in Escherichia coli HB-101 after 15 hrs by liquid scintillation counting analysis

>  <parent_molecule_chembl_id>  (417) 
CHEMBL2441107

>  <canonical_smiles>  (417) 
COc1cccc(C(=O)Nc2ccc(Oc3ccc(O)cc3)cc2)c1

>  <standard_type>  (417) 
IC50

>  <standard_relation>  (417) 
=

>  <standard_value>  (417) 
20000.0

>  <standard_units>  (417) 
nM

>  <target_pref_name>  (417) 
Androgen Receptor

>  <target_chembl_id>  (417) 
CHEMBL1871

>  <target_organism>  (417) 
Homo sapiens

>  <pchembl_median>  (417) 
7.46

$$$$
CHEMBL1082407
     RDKit          2D

 32 34  0  0  0  0  0  0  0  0999 V2000
    5.2500   -1.2990    0.0000 C   0  0  0  0  0  0  0  0  0  0  0  0
    3.7500   -1.2990    0.0000 N   0  0  0  0  0  0  0  0  0  0  0  0
    3.0000    0.0000    0.0000 C   0  0  0  0  0  0  0  0  0  0  0  0
    3.7500    1.2990    0.0000 O   0  0  0  0  0  0  0  0  0  0  0  0
    1.5000    0.0000    0.0000 C   0  0  0  0  0  0  0  0  0  0  0  0
    0.7500   -1.2990    0.0000 C   0  0  0  0  0  0  0  0  0  0  0  0
   -0.7500   -1.2990    0.0000 C   0  0  0  0  0  0  0  0  0  0  0  0
   -1.5000    0.0000    0.0000 C   0  0  0  0  0  0  0  0  0  0  0  0
   -3.0000    0.0000    0.0000 N   0  0  0  0  0  0  0  0  0  0  0  0
   -3.8817   -1.2135    0.0000 C   0  0  0  0  0  0  0  0  0  0  0  0
   -3.4182   -2.6401    0.0000 S   0  0  0  0  0  0  0  0  0  0  0  0
   -5.3083   -0.7500    0.0000 N   0  0  0  0  0  0  0  0  0  0  0  0
   -6.5218   -1.6317    0.0000 C   0  0  0  0  0  0  0  0  0  0  0  0
   -7.8921   -1.0216    0.0000 C   0  0  0  0  0  0  0  0  0  0  0  0
   -9.1056   -1.9033    0.0000 C   0  0  0  0  0  0  0  0  0  0  0  0
   -8.9488   -3.3950    0.0000 C   0  0  0  0  0  0  0  0  0  0  0  0
  -10.1624   -4.2767    0.0000 C   0  0  0  0  0  0  0  0  0  0  0  0
  -11.3759   -5.1584    0.0000 N   0  0  0  0  0  0  0  0  0  0  0  0
   -7.5785   -4.0051    0.0000 C   0  0  0  0  0  0  0  0  0  0  0  0
   -7.4217   -5.4969    0.0000 C   0  0  0  0  0  0  0  0  0  0  0  0
   -7.2649   -6.9887    0.0000 F   0  0  0  0  0  0  0  0  0  0  0  0
   -5.9299   -5.3401    0.0000 F   0  0  0  0  0  0  0  0  0  0  0  0
   -8.9135   -5.6537    0.0000 F   0  0  0  0  0  0  0  0  0  0  0  0
   -6.3650   -3.1235    0.0000 C   0  0  0  0  0  0  0  0  0  0  0  0
   -5.3083    0.7500    0.0000 C   0  0  0  0  0  0  0  0  0  0  0  0
   -6.5218    1.6317    0.0000 O   0  0  0  0  0  0  0  0  0  0  0  0
   -3.8817    1.2135    0.0000 C   0  0  0  0  0  0  0  0  0  0  0  0
   -4.4918    2.5838    0.0000 C   0  0  0  0  0  0  0  0  0  0  0  0
   -2.5826    1.9635    0.0000 C   0  0  0  0  0  0  0  0  0  0  0  0
   -0.7500    1.2990    0.0000 C   0  0  0  0  0  0  0  0  0  0  0  0
    0.7500    1.2990    0.0000 C   0  0  0  0  0  0  0  0  0  0  0  0
    1.5000    2.5981    0.0000 F   0  0  0  0  0  0  0  0  0  0  0  0
  1  2  1  0
  2  3  1  0
  3  4  2  0
  3  5  1  0
  5  6  2  0
  6  7  1  0
  7  8  2  0
  8  9  1  0
  9 10  1  0
 10 11  2  0
 10 12  1  0
 12 13  1  0
 13 14  2  0
 14 15  1  0
 15 16  2  0
 16 17  1  0
 17 18  3  0
 16 19  1  0
 19 20  1  0
 20 21  1  0
 20 22  1  0
 20 23  1  0
 19 24  2  0
 12 25  1  0
 25 26  2  0
 25 27  1  0
 27 28  1  0
 27 29  1  0
  8 30  1  0
 30 31  2  0
 31 32  1  0
 31  5  1  0
 27  9  1  0
 24 13  1  0
M  END
>  <assay_chembl_id>  (418) 
CHEMBL2446110

>  <assay_description>  (418) 
Displacement of Fluormone AL Green from androgen receptor ligand binding domain (unknown origin) after 4 hrs by fluorescence polarization assay

>  <parent_molecule_chembl_id>  (418) 
CHEMBL1082407

>  <canonical_smiles>  (418) 
CNC(=O)c1ccc(N2C(=S)N(c3ccc(C#N)c(C(F)(F)F)c3)C(=O)C2(C)C)cc1F

>  <standard_type>  (418) 
IC50

>  <standard_relation>  (418) 
=

>  <standard_value>  (418) 
5600.0

>  <standard_units>  (418) 
nM

>  <target_pref_name>  (418) 
Androgen Receptor

>  <target_chembl_id>  (418) 
CHEMBL1871

>  <target_organism>  (418) 
Homo sapiens

>  <pchembl_median>  (418) 
7.17

$$$$
CHEMBL2440233
     RDKit          2D

 37 40  0  0  0  0  0  0  0  0999 V2000
    3.7500   -1.2990    0.0000 O   0  0  0  0  0  0  0  0  0  0  0  0
    3.0000   -2.5981    0.0000 C   0  0  0  0  0  0  0  0  0  0  0  0
    1.5000   -2.5981    0.0000 O   0  0  0  0  0  0  0  0  0  0  0  0
    0.7500   -1.2990    0.0000 C   0  0  0  0  0  0  0  0  0  0  0  0
    1.5000    0.0000    0.0000 C   0  0  0  0  0  0  0  0  0  0  0  0
    3.0000    0.0000    0.0000 O   0  0  0  0  0  0  0  0  0  0  0  0
    0.7500    1.2990    0.0000 C   0  0  0  0  0  0  0  0  0  0  0  0
   -0.7500    1.2990    0.0000 C   0  0  0  0  0  0  0  0  0  0  0  0
   -1.5000    0.0000    0.0000 N   0  0  0  0  0  0  0  0  0  0  0  0
   -3.0000    0.0000    0.0000 C   0  0  0  0  0  0  0  0  0  0  0  0
   -3.7500   -1.2990    0.0000 O   0  0  0  0  0  0  0  0  0  0  0  0
   -3.7500    1.2990    0.0000 C   0  0  0  0  0  0  0  0  0  0  0  0
   -5.2500    1.2990    0.0000 C   0  0  0  0  0  0  0  0  0  0  0  0
   -6.0000    2.5981    0.0000 C   0  0  0  0  0  0  0  0  0  0  0  0
   -5.2500    3.8971    0.0000 C   0  0  0  0  0  0  0  0  0  0  0  0
   -6.0000    5.1962    0.0000 C   0  0  0  0  0  0  0  0  0  0  0  0
   -7.5000    5.1962    0.0000 C   0  0  0  0  0  0  0  0  0  0  0  0
   -8.2500    3.8971    0.0000 C   0  0  0  0  0  0  0  0  0  0  0  0
   -7.5000    2.5981    0.0000 C   0  0  0  0  0  0  0  0  0  0  0  0
   -0.7500   -1.2990    0.0000 C   0  0  0  0  0  0  0  0  0  0  0  0
   -1.5000   -2.5981    0.0000 C   0  0  0  0  0  0  0  0  0  0  0  0
   -3.0000   -2.5981    0.0000 C   0  0  0  0  0  0  0  0  0  0  0  0
   -3.7500   -3.8971    0.0000 C   0  0  0  0  0  0  0  0  0  0  0  0
   -3.0000   -5.1962    0.0000 C   0  0  0  0  0  0  0  0  0  0  0  0
   -1.5000   -5.1962    0.0000 C   0  0  0  0  0  0  0  0  0  0  0  0
   -0.7500   -3.8971    0.0000 C   0  0  0  0  0  0  0  0  0  0  0  0
    3.7500   -3.8971    0.0000 C   0  0  0  0  0  0  0  0  0  0  0  0
    3.0000   -5.1962    0.0000 C   0  0  0  0  0  0  0  0  0  0  0  0
    3.7500   -6.4952    0.0000 C   0  0  0  0  0  0  0  0  0  0  0  0
    5.2500   -6.4952    0.0000 C   0  0  0  0  0  0  0  0  0  0  0  0
    6.0000   -7.7942    0.0000 F   0  0  0  0  0  0  0  0  0  0  0  0
    6.0000   -5.1962    0.0000 C   0  0  0  0  0  0  0  0  0  0  0  0
    5.2500   -3.8971    0.0000 C   0  0  0  0  0  0  0  0  0  0  0  0
    6.0000   -2.5981    0.0000 C   0  0  0  0  0  0  0  0  0  0  0  0
    6.7500   -1.2990    0.0000 F   0  0  0  0  0  0  0  0  0  0  0  0
    7.2990   -3.3481    0.0000 F   0  0  0  0  0  0  0  0  0  0  0  0
    4.7010   -1.8481    0.0000 F   0  0  0  0  0  0  0  0  0  0  0  0
  1  2  2  0
  2  3  1  0
  4  3  1  6
  4  5  1  0
  5  6  2  0
  5  7  1  0
  7  8  2  0
  8  9  1  0
  9 10  1  0
 10 11  2  0
 10 12  1  0
 12 13  2  0
 13 14  1  0
 14 15  2  0
 15 16  1  0
 16 17  2  0
 17 18  1  0
 18 19  2  0
  9 20  1  0
 20 21  1  1
 21 22  2  0
 22 23  1  0
 23 24  2  0
 24 25  1  0
 25 26  2  0
  2 27  1  0
 27 28  2  0
 28 29  1  0
 29 30  2  0
 30 31  1  0
 30 32  1  0
 32 33  2  0
 33 34  1  0
 34 35  1  0
 34 36  1  0
 34 37  1  0
 20  4  1  0
 26 21  1  0
 33 27  1  0
 19 14  1  0
M  END
>  <assay_chembl_id>  (419) 
CHEMBL2446110

>  <assay_description>  (419) 
Displacement of Fluormone AL Green from androgen receptor ligand binding domain (unknown origin) after 4 hrs by fluorescence polarization assay

>  <parent_molecule_chembl_id>  (419) 
CHEMBL2440233

>  <canonical_smiles>  (419) 
O=C(O[C@H]1C(=O)C=CN(C(=O)/C=C/c2ccccc2)[C@@H]1c1ccccc1)c1ccc(F)cc1C(F)(F)F

>  <standard_type>  (419) 
IC50

>  <standard_relation>  (419) 
=

>  <standard_value>  (419) 
30100.0

>  <standard_units>  (419) 
nM

>  <target_pref_name>  (419) 
Androgen Receptor

>  <target_chembl_id>  (419) 
CHEMBL1871

>  <target_organism>  (419) 
Homo sapiens

>  <pchembl_median>  (419) 
7.25

$$$$
CHEMBL1170
     RDKit          2D

 25 28  0  0  0  0  0  0  0  0999 V2000
   -6.9404  -10.4842    0.0000 C   0  0  0  0  0  0  0  0  0  0  0  0
   -6.6286   -9.0170    0.0000 C   0  0  0  0  0  0  0  0  0  0  0  0
   -5.2020   -8.5535    0.0000 C   0  0  0  0  0  0  0  0  0  0  0  0
   -4.0873   -9.5572    0.0000 O   0  0  0  0  0  0  0  0  0  0  0  0
   -4.8901   -7.0863    0.0000 O   0  0  0  0  0  0  0  0  0  0  0  0
   -3.4635   -6.6227    0.0000 C   0  0  0  0  0  0  0  0  0  0  0  0
   -2.2500   -7.5044    0.0000 C   0  0  0  0  0  0  0  0  0  0  0  0
   -1.0365   -6.6227    0.0000 C   0  0  0  0  0  0  0  0  0  0  0  0
   -1.5000   -5.1962    0.0000 C   0  0  0  0  0  0  0  0  0  0  0  0
   -0.7500   -3.8971    0.0000 C   0  0  0  0  0  0  0  0  0  0  0  0
    0.7500   -3.8971    0.0000 C   0  0  0  0  0  0  0  0  0  0  0  0
    1.5000   -2.5981    0.0000 C   0  0  0  0  0  0  0  0  0  0  0  0
    0.7500   -1.2990    0.0000 C   0  0  0  0  0  0  0  0  0  0  0  0
    1.5000    0.0000    0.0000 C   0  0  0  0  0  0  0  0  0  0  0  0
    0.7500    1.2990    0.0000 C   0  0  0  0  0  0  0  0  0  0  0  0
    1.5000    2.5981    0.0000 O   0  0  0  0  0  0  0  0  0  0  0  0
   -0.7500    1.2990    0.0000 C   0  0  0  0  0  0  0  0  0  0  0  0
   -1.5000    0.0000    0.0000 C   0  0  0  0  0  0  0  0  0  0  0  0
   -0.7500   -1.2990    0.0000 C   0  0  0  0  0  0  0  0  0  0  0  0
   -2.2500   -1.2990    0.0000 C   0  0  0  0  0  0  0  0  0  0  0  0
   -1.5000   -2.5981    0.0000 C   0  0  0  0  0  0  0  0  0  0  0  0
   -3.0000   -2.5981    0.0000 C   0  0  0  0  0  0  0  0  0  0  0  0
   -3.7500   -3.8971    0.0000 C   0  0  0  0  0  0  0  0  0  0  0  0
   -3.0000   -5.1962    0.0000 C   0  0  0  0  0  0  0  0  0  0  0  0
   -4.4918   -5.3529    0.0000 C   0  0  0  0  0  0  0  0  0  0  0  0
  1  2  1  0
  2  3  1  0
  3  4  2  0
  3  5  1  0
  6  5  1  6
  6  7  1  0
  7  8  1  0
  9  8  1  6
  9 10  1  0
 10 11  1  1
 11 12  1  0
 12 13  1  0
 13 14  2  0
 14 15  1  0
 15 16  2  0
 15 17  1  0
 17 18  1  0
 18 19  1  0
 19 20  1  6
 19 21  1  0
 21 22  1  6
 22 23  1  0
 23 24  1  0
 24 25  1  6
 24  6  1  0
 24  9  1  0
 21 10  1  0
 19 13  1  0
M  END
>  <assay_chembl_id>  (420) 
CHEMBL3222681

>  <assay_description>  (420) 
Displacement of [3H]mibolerone from human AR expressed in COS cells after 3.5 hrs by liquid scintillation counting analysis

>  <parent_molecule_chembl_id>  (420) 
CHEMBL1170

>  <canonical_smiles>  (420) 
CCC(=O)O[C@H]1CC[C@H]2[C@@H]3CCC4=CC(=O)CC[C@]4(C)[C@H]3CC[C@]12C

>  <standard_type>  (420) 
IC50

>  <standard_relation>  (420) 
=

>  <standard_value>  (420) 
18.0

>  <standard_units>  (420) 
nM

>  <target_pref_name>  (420) 
Androgen Receptor

>  <target_chembl_id>  (420) 
CHEMBL1871

>  <target_organism>  (420) 
Homo sapiens

>  <pchembl_median>  (420) 
7.13

$$$$
CHEMBL3221237
     RDKit          2D

 35 40  0  0  0  0  0  0  0  0999 V2000
   -6.2284   -5.2500    0.0000 C   0  0  0  0  0  0  0  0  0  0  0  0
   -6.2284   -3.7500    0.0000 N   0  0  0  0  0  0  0  0  0  0  0  0
   -7.5275   -3.0000    0.0000 C   0  0  0  0  0  0  0  0  0  0  0  0
   -8.8265   -3.7500    0.0000 O   0  0  0  0  0  0  0  0  0  0  0  0
   -7.5275   -1.5000    0.0000 C   0  0  0  0  0  0  0  0  0  0  0  0
   -8.8265   -0.7500    0.0000 F   0  0  0  0  0  0  0  0  0  0  0  0
   -6.2284   -0.7500    0.0000 C   0  0  0  0  0  0  0  0  0  0  0  0
   -4.9294   -1.5000    0.0000 C   0  0  0  0  0  0  0  0  0  0  0  0
   -4.9294   -0.0000    0.0000 C   0  0  0  0  0  0  0  0  0  0  0  0
   -3.6304   -0.7500    0.0000 C   0  0  0  0  0  0  0  0  0  0  0  0
   -3.6304    0.7500    0.0000 C   0  0  0  0  0  0  0  0  0  0  0  0
   -2.3313    1.5000    0.0000 C   0  0  0  0  0  0  0  0  0  0  0  0
   -1.0323    0.7500    0.0000 C   0  0  0  0  0  0  0  0  0  0  0  0
   -0.8755    2.2418    0.0000 C   0  0  0  0  0  0  0  0  0  0  0  0
    0.3943    1.2135    0.0000 C   0  0  0  0  0  0  0  0  0  0  0  0
    0.8578    2.6401    0.0000 C   0  0  0  0  0  0  0  0  0  0  0  0
   -0.1459    3.7548    0.0000 O   0  0  0  0  0  0  0  0  0  0  0  0
    2.3250    2.9520    0.0000 N   0  0  0  0  0  0  0  0  0  0  0  0
    2.7886    4.3786    0.0000 C   0  0  0  0  0  0  0  0  0  0  0  0
    4.2558    4.6904    0.0000 C   0  0  0  0  0  0  0  0  0  0  0  0
    5.3705    3.6867    0.0000 N   0  0  0  0  0  0  0  0  0  0  0  0
    6.6695    4.4367    0.0000 C   0  0  0  0  0  0  0  0  0  0  0  0
    8.0961    3.9732    0.0000 C   0  0  0  0  0  0  0  0  0  0  0  0
    9.2108    4.9769    0.0000 C   0  0  0  0  0  0  0  0  0  0  0  0
    8.8990    6.4441    0.0000 C   0  0  0  0  0  0  0  0  0  0  0  0
    7.4724    6.9077    0.0000 N   0  0  0  0  0  0  0  0  0  0  0  0
    6.3577    5.9040    0.0000 C   0  0  0  0  0  0  0  0  0  0  0  0
    4.8659    6.0607    0.0000 N   0  0  0  0  0  0  0  0  0  0  0  0
    1.2760    0.0000    0.0000 C   0  0  0  0  0  0  0  0  0  0  0  0
    0.3943   -1.2135    0.0000 C   0  0  0  0  0  0  0  0  0  0  0  0
   -1.0323   -0.7500    0.0000 C   0  0  0  0  0  0  0  0  0  0  0  0
   -2.3313   -1.5000    0.0000 C   0  0  0  0  0  0  0  0  0  0  0  0
   -2.3313   -3.0000    0.0000 C   0  0  0  0  0  0  0  0  0  0  0  0
   -3.6304   -3.7500    0.0000 C   0  0  0  0  0  0  0  0  0  0  0  0
   -4.9294   -3.0000    0.0000 C   0  0  0  0  0  0  0  0  0  0  0  0
  1  2  1  0
  2  3  1  0
  3  4  2  0
  3  5  1  0
  5  6  1  0
  5  7  2  0
  7  8  1  0
  8  9  1  1
  8 10  1  0
 10 11  1  1
 11 12  1  0
 12 13  1  0
 13 14  1  1
 13 15  1  0
 15 16  1  1
 16 17  2  0
 16 18  1  0
 18 19  1  0
 19 20  1  0
 20 21  2  0
 21 22  1  0
 22 23  2  0
 23 24  1  0
 24 25  2  0
 25 26  1  0
 26 27  2  0
 27 28  1  0
 15 29  1  0
 29 30  1  0
 31 30  1  1
 31 32  1  0
 32 33  1  6
 33 34  1  0
 35 34  1  1
 35  2  1  0
 35  8  1  0
 32 10  1  0
 31 13  1  0
 28 20  1  0
 27 22  1  0
M  END
>  <assay_chembl_id>  (421) 
CHEMBL3222681

>  <assay_description>  (421) 
Displacement of [3H]mibolerone from human AR expressed in COS cells after 3.5 hrs by liquid scintillation counting analysis

>  <parent_molecule_chembl_id>  (421) 
CHEMBL3221237

>  <canonical_smiles>  (421) 
CN1C(=O)C(F)=C[C@]2(C)[C@H]3CC[C@]4(C)[C@@H](C(=O)NCc5nc6cccnc6[nH]5)CC[C@H]4[C@@H]3CC[C@@H]12

>  <standard_type>  (421) 
IC50

>  <standard_relation>  (421) 
=

>  <standard_value>  (421) 
196.0

>  <standard_units>  (421) 
nM

>  <target_pref_name>  (421) 
Androgen Receptor

>  <target_chembl_id>  (421) 
CHEMBL1871

>  <target_organism>  (421) 
Homo sapiens

>  <pchembl_median>  (421) 
7.01

$$$$
CHEMBL3238273
     RDKit          2D

 24 26  0  0  0  0  0  0  0  0999 V2000
   -1.4848   -4.9682    0.0000 C   0  0  0  0  0  0  0  0  0  0  0  0
   -2.9520   -4.6564    0.0000 C   0  0  0  0  0  0  0  0  0  0  0  0
   -3.2638   -6.1236    0.0000 O   0  0  0  0  0  0  0  0  0  0  0  0
   -4.4192   -4.3445    0.0000 C   0  0  0  0  0  0  0  0  0  0  0  0
   -5.4229   -5.4592    0.0000 O   0  0  0  0  0  0  0  0  0  0  0  0
   -6.8901   -5.1474    0.0000 C   0  0  0  0  0  0  0  0  0  0  0  0
   -7.3536   -3.7208    0.0000 C   0  0  0  0  0  0  0  0  0  0  0  0
   -8.8209   -3.4089    0.0000 C   0  0  0  0  0  0  0  0  0  0  0  0
   -9.8246   -4.5236    0.0000 C   0  0  0  0  0  0  0  0  0  0  0  0
   -9.3610   -5.9502    0.0000 C   0  0  0  0  0  0  0  0  0  0  0  0
   -7.8938   -6.2621    0.0000 C   0  0  0  0  0  0  0  0  0  0  0  0
   -2.6401   -3.1891    0.0000 C   0  0  0  0  0  0  0  0  0  0  0  0
   -3.7548   -2.1855    0.0000 O   0  0  0  0  0  0  0  0  0  0  0  0
   -1.2135   -2.7256    0.0000 N   0  0  0  0  0  0  0  0  0  0  0  0
    0.0000   -3.6073    0.0000 C   0  0  0  0  0  0  0  0  0  0  0  0
    1.2135   -2.7256    0.0000 C   0  0  0  0  0  0  0  0  0  0  0  0
    0.7500   -1.2990    0.0000 C   0  0  0  0  0  0  0  0  0  0  0  0
    1.5000    0.0000    0.0000 C   0  0  0  0  0  0  0  0  0  0  0  0
    3.0000    0.0000    0.0000 C   0  0  0  0  0  0  0  0  0  0  0  0
    4.5000    0.0000    0.0000 N   0  0  0  0  0  0  0  0  0  0  0  0
    0.7500    1.2990    0.0000 C   0  0  0  0  0  0  0  0  0  0  0  0
   -0.7500    1.2990    0.0000 C   0  0  0  0  0  0  0  0  0  0  0  0
   -1.5000    0.0000    0.0000 C   0  0  0  0  0  0  0  0  0  0  0  0
   -0.7500   -1.2990    0.0000 C   0  0  0  0  0  0  0  0  0  0  0  0
  2  1  1  6
  2  3  1  0
  2  4  1  0
  4  5  1  0
  5  6  1  0
  6  7  2  0
  7  8  1  0
  8  9  2  0
  9 10  1  0
 10 11  2  0
  2 12  1  0
 12 13  2  0
 12 14  1  0
 14 15  1  0
 15 16  1  0
 16 17  1  0
 17 18  2  0
 18 19  1  0
 19 20  3  0
 18 21  1  0
 21 22  2  0
 22 23  1  0
 23 24  2  0
 11  6  1  0
 24 14  1  0
 24 17  1  0
M  END
>  <assay_chembl_id>  (422) 
CHEMBL3243251

>  <assay_description>  (422) 
Displacement of [3H]mibolerone from full length human AR expressed in COS cells after 3.5 hrs by liquid scintillation counting

>  <parent_molecule_chembl_id>  (422) 
CHEMBL3238273

>  <canonical_smiles>  (422) 
C[C@](O)(COc1ccccc1)C(=O)N1CCc2c(C#N)cccc21

>  <standard_type>  (422) 
IC50

>  <standard_relation>  (422) 
=

>  <standard_value>  (422) 
99.5

>  <standard_units>  (422) 
nM

>  <target_pref_name>  (422) 
Androgen Receptor

>  <target_chembl_id>  (422) 
CHEMBL1871

>  <target_organism>  (422) 
Homo sapiens

>  <pchembl_median>  (422) 
6.68

$$$$
CHEMBL3238274
     RDKit          2D

 25 27  0  0  0  0  0  0  0  0999 V2000
   -1.4848   -4.9682    0.0000 C   0  0  0  0  0  0  0  0  0  0  0  0
   -2.9520   -4.6564    0.0000 C   0  0  0  0  0  0  0  0  0  0  0  0
   -3.2638   -6.1236    0.0000 O   0  0  0  0  0  0  0  0  0  0  0  0
   -4.4192   -4.3445    0.0000 C   0  0  0  0  0  0  0  0  0  0  0  0
   -5.4229   -5.4592    0.0000 O   0  0  0  0  0  0  0  0  0  0  0  0
   -6.8901   -5.1474    0.0000 C   0  0  0  0  0  0  0  0  0  0  0  0
   -7.3536   -3.7208    0.0000 C   0  0  0  0  0  0  0  0  0  0  0  0
   -8.8209   -3.4089    0.0000 C   0  0  0  0  0  0  0  0  0  0  0  0
   -9.8246   -4.5236    0.0000 C   0  0  0  0  0  0  0  0  0  0  0  0
  -11.2918   -4.2117    0.0000 F   0  0  0  0  0  0  0  0  0  0  0  0
   -9.3610   -5.9502    0.0000 C   0  0  0  0  0  0  0  0  0  0  0  0
   -7.8938   -6.2621    0.0000 C   0  0  0  0  0  0  0  0  0  0  0  0
   -2.6401   -3.1891    0.0000 C   0  0  0  0  0  0  0  0  0  0  0  0
   -3.7548   -2.1855    0.0000 O   0  0  0  0  0  0  0  0  0  0  0  0
   -1.2135   -2.7256    0.0000 N   0  0  0  0  0  0  0  0  0  0  0  0
    0.0000   -3.6073    0.0000 C   0  0  0  0  0  0  0  0  0  0  0  0
    1.2135   -2.7256    0.0000 C   0  0  0  0  0  0  0  0  0  0  0  0
    0.7500   -1.2990    0.0000 C   0  0  0  0  0  0  0  0  0  0  0  0
    1.5000    0.0000    0.0000 C   0  0  0  0  0  0  0  0  0  0  0  0
    3.0000    0.0000    0.0000 C   0  0  0  0  0  0  0  0  0  0  0  0
    4.5000    0.0000    0.0000 N   0  0  0  0  0  0  0  0  0  0  0  0
    0.7500    1.2990    0.0000 C   0  0  0  0  0  0  0  0  0  0  0  0
   -0.7500    1.2990    0.0000 C   0  0  0  0  0  0  0  0  0  0  0  0
   -1.5000    0.0000    0.0000 C   0  0  0  0  0  0  0  0  0  0  0  0
   -0.7500   -1.2990    0.0000 C   0  0  0  0  0  0  0  0  0  0  0  0
  2  1  1  6
  2  3  1  0
  2  4  1  0
  4  5  1  0
  5  6  1  0
  6  7  2  0
  7  8  1  0
  8  9  2  0
  9 10  1  0
  9 11  1  0
 11 12  2  0
  2 13  1  0
 13 14  2  0
 13 15  1  0
 15 16  1  0
 16 17  1  0
 17 18  1  0
 18 19  2  0
 19 20  1  0
 20 21  3  0
 19 22  1  0
 22 23  2  0
 23 24  1  0
 24 25  2  0
 12  6  1  0
 25 15  1  0
 25 18  1  0
M  END
>  <assay_chembl_id>  (423) 
CHEMBL3243251

>  <assay_description>  (423) 
Displacement of [3H]mibolerone from full length human AR expressed in COS cells after 3.5 hrs by liquid scintillation counting

>  <parent_molecule_chembl_id>  (423) 
CHEMBL3238274

>  <canonical_smiles>  (423) 
C[C@](O)(COc1ccc(F)cc1)C(=O)N1CCc2c(C#N)cccc21

>  <standard_type>  (423) 
IC50

>  <standard_relation>  (423) 
=

>  <standard_value>  (423) 
12.7

>  <standard_units>  (423) 
nM

>  <target_pref_name>  (423) 
Androgen Receptor

>  <target_chembl_id>  (423) 
CHEMBL1871

>  <target_organism>  (423) 
Homo sapiens

>  <pchembl_median>  (423) 
6.91

$$$$
CHEMBL3238275
     RDKit          2D

 25 27  0  0  0  0  0  0  0  0999 V2000
   -1.4848   -4.9682    0.0000 C   0  0  0  0  0  0  0  0  0  0  0  0
   -2.9520   -4.6564    0.0000 C   0  0  0  0  0  0  0  0  0  0  0  0
   -3.2638   -6.1236    0.0000 O   0  0  0  0  0  0  0  0  0  0  0  0
   -4.4192   -4.3445    0.0000 C   0  0  0  0  0  0  0  0  0  0  0  0
   -5.4229   -5.4592    0.0000 O   0  0  0  0  0  0  0  0  0  0  0  0
   -6.8901   -5.1474    0.0000 C   0  0  0  0  0  0  0  0  0  0  0  0
   -7.3536   -3.7208    0.0000 C   0  0  0  0  0  0  0  0  0  0  0  0
   -8.8209   -3.4089    0.0000 C   0  0  0  0  0  0  0  0  0  0  0  0
   -9.8246   -4.5236    0.0000 C   0  0  0  0  0  0  0  0  0  0  0  0
   -9.3610   -5.9502    0.0000 C   0  0  0  0  0  0  0  0  0  0  0  0
  -10.3647   -7.0649    0.0000 F   0  0  0  0  0  0  0  0  0  0  0  0
   -7.8938   -6.2621    0.0000 C   0  0  0  0  0  0  0  0  0  0  0  0
   -2.6401   -3.1891    0.0000 C   0  0  0  0  0  0  0  0  0  0  0  0
   -3.7548   -2.1855    0.0000 O   0  0  0  0  0  0  0  0  0  0  0  0
   -1.2135   -2.7256    0.0000 N   0  0  0  0  0  0  0  0  0  0  0  0
    0.0000   -3.6073    0.0000 C   0  0  0  0  0  0  0  0  0  0  0  0
    1.2135   -2.7256    0.0000 C   0  0  0  0  0  0  0  0  0  0  0  0
    0.7500   -1.2990    0.0000 C   0  0  0  0  0  0  0  0  0  0  0  0
    1.5000    0.0000    0.0000 C   0  0  0  0  0  0  0  0  0  0  0  0
    3.0000    0.0000    0.0000 C   0  0  0  0  0  0  0  0  0  0  0  0
    4.5000    0.0000    0.0000 N   0  0  0  0  0  0  0  0  0  0  0  0
    0.7500    1.2990    0.0000 C   0  0  0  0  0  0  0  0  0  0  0  0
   -0.7500    1.2990    0.0000 C   0  0  0  0  0  0  0  0  0  0  0  0
   -1.5000    0.0000    0.0000 C   0  0  0  0  0  0  0  0  0  0  0  0
   -0.7500   -1.2990    0.0000 C   0  0  0  0  0  0  0  0  0  0  0  0
  2  1  1  6
  2  3  1  0
  2  4  1  0
  4  5  1  0
  5  6  1  0
  6  7  2  0
  7  8  1  0
  8  9  2  0
  9 10  1  0
 10 11  1  0
 10 12  2  0
  2 13  1  0
 13 14  2  0
 13 15  1  0
 15 16  1  0
 16 17  1  0
 17 18  1  0
 18 19  2  0
 19 20  1  0
 20 21  3  0
 19 22  1  0
 22 23  2  0
 23 24  1  0
 24 25  2  0
 12  6  1  0
 25 15  1  0
 25 18  1  0
M  END
>  <assay_chembl_id>  (424) 
CHEMBL3243251

>  <assay_description>  (424) 
Displacement of [3H]mibolerone from full length human AR expressed in COS cells after 3.5 hrs by liquid scintillation counting

>  <parent_molecule_chembl_id>  (424) 
CHEMBL3238275

>  <canonical_smiles>  (424) 
C[C@](O)(COc1cccc(F)c1)C(=O)N1CCc2c(C#N)cccc21

>  <standard_type>  (424) 
IC50

>  <standard_relation>  (424) 
=

>  <standard_value>  (424) 
34.2

>  <standard_units>  (424) 
nM

>  <target_pref_name>  (424) 
Androgen Receptor

>  <target_chembl_id>  (424) 
CHEMBL1871

>  <target_organism>  (424) 
Homo sapiens

>  <pchembl_median>  (424) 
7.37

$$$$
CHEMBL3238276
     RDKit          2D

 25 27  0  0  0  0  0  0  0  0999 V2000
   -1.4848   -4.9682    0.0000 C   0  0  0  0  0  0  0  0  0  0  0  0
   -2.9520   -4.6564    0.0000 C   0  0  0  0  0  0  0  0  0  0  0  0
   -3.2638   -6.1236    0.0000 O   0  0  0  0  0  0  0  0  0  0  0  0
   -4.4192   -4.3445    0.0000 C   0  0  0  0  0  0  0  0  0  0  0  0
   -5.4229   -5.4592    0.0000 O   0  0  0  0  0  0  0  0  0  0  0  0
   -6.8901   -5.1474    0.0000 C   0  0  0  0  0  0  0  0  0  0  0  0
   -7.3536   -3.7208    0.0000 C   0  0  0  0  0  0  0  0  0  0  0  0
   -8.8209   -3.4089    0.0000 C   0  0  0  0  0  0  0  0  0  0  0  0
   -9.8246   -4.5236    0.0000 C   0  0  0  0  0  0  0  0  0  0  0  0
   -9.3610   -5.9502    0.0000 C   0  0  0  0  0  0  0  0  0  0  0  0
   -7.8938   -6.2621    0.0000 C   0  0  0  0  0  0  0  0  0  0  0  0
   -7.4303   -7.6887    0.0000 F   0  0  0  0  0  0  0  0  0  0  0  0
   -2.6401   -3.1891    0.0000 C   0  0  0  0  0  0  0  0  0  0  0  0
   -3.7548   -2.1855    0.0000 O   0  0  0  0  0  0  0  0  0  0  0  0
   -1.2135   -2.7256    0.0000 N   0  0  0  0  0  0  0  0  0  0  0  0
    0.0000   -3.6073    0.0000 C   0  0  0  0  0  0  0  0  0  0  0  0
    1.2135   -2.7256    0.0000 C   0  0  0  0  0  0  0  0  0  0  0  0
    0.7500   -1.2990    0.0000 C   0  0  0  0  0  0  0  0  0  0  0  0
    1.5000    0.0000    0.0000 C   0  0  0  0  0  0  0  0  0  0  0  0
    3.0000    0.0000    0.0000 C   0  0  0  0  0  0  0  0  0  0  0  0
    4.5000    0.0000    0.0000 N   0  0  0  0  0  0  0  0  0  0  0  0
    0.7500    1.2990    0.0000 C   0  0  0  0  0  0  0  0  0  0  0  0
   -0.7500    1.2990    0.0000 C   0  0  0  0  0  0  0  0  0  0  0  0
   -1.5000    0.0000    0.0000 C   0  0  0  0  0  0  0  0  0  0  0  0
   -0.7500   -1.2990    0.0000 C   0  0  0  0  0  0  0  0  0  0  0  0
  2  1  1  6
  2  3  1  0
  2  4  1  0
  4  5  1  0
  5  6  1  0
  6  7  2  0
  7  8  1  0
  8  9  2  0
  9 10  1  0
 10 11  2  0
 11 12  1  0
  2 13  1  0
 13 14  2  0
 13 15  1  0
 15 16  1  0
 16 17  1  0
 17 18  1  0
 18 19  2  0
 19 20  1  0
 20 21  3  0
 19 22  1  0
 22 23  2  0
 23 24  1  0
 24 25  2  0
 11  6  1  0
 25 15  1  0
 25 18  1  0
M  END
>  <assay_chembl_id>  (425) 
CHEMBL3243251

>  <assay_description>  (425) 
Displacement of [3H]mibolerone from full length human AR expressed in COS cells after 3.5 hrs by liquid scintillation counting

>  <parent_molecule_chembl_id>  (425) 
CHEMBL3238276

>  <canonical_smiles>  (425) 
C[C@](O)(COc1ccccc1F)C(=O)N1CCc2c(C#N)cccc21

>  <standard_type>  (425) 
IC50

>  <standard_relation>  (425) 
=

>  <standard_value>  (425) 
10.1

>  <standard_units>  (425) 
nM

>  <target_pref_name>  (425) 
Androgen Receptor

>  <target_chembl_id>  (425) 
CHEMBL1871

>  <target_organism>  (425) 
Homo sapiens

>  <pchembl_median>  (425) 
6.83

$$$$
CHEMBL3238277
     RDKit          2D

 25 27  0  0  0  0  0  0  0  0999 V2000
   -1.4848   -4.9682    0.0000 C   0  0  0  0  0  0  0  0  0  0  0  0
   -2.9520   -4.6564    0.0000 C   0  0  0  0  0  0  0  0  0  0  0  0
   -3.2638   -6.1236    0.0000 O   0  0  0  0  0  0  0  0  0  0  0  0
   -4.4192   -4.3445    0.0000 C   0  0  0  0  0  0  0  0  0  0  0  0
   -5.4229   -5.4592    0.0000 O   0  0  0  0  0  0  0  0  0  0  0  0
   -6.8901   -5.1474    0.0000 C   0  0  0  0  0  0  0  0  0  0  0  0
   -7.3536   -3.7208    0.0000 C   0  0  0  0  0  0  0  0  0  0  0  0
   -8.8209   -3.4089    0.0000 C   0  0  0  0  0  0  0  0  0  0  0  0
   -9.8246   -4.5236    0.0000 C   0  0  0  0  0  0  0  0  0  0  0  0
  -11.2918   -4.2117    0.0000 Cl  0  0  0  0  0  0  0  0  0  0  0  0
   -9.3610   -5.9502    0.0000 C   0  0  0  0  0  0  0  0  0  0  0  0
   -7.8938   -6.2621    0.0000 C   0  0  0  0  0  0  0  0  0  0  0  0
   -2.6401   -3.1891    0.0000 C   0  0  0  0  0  0  0  0  0  0  0  0
   -3.7548   -2.1855    0.0000 O   0  0  0  0  0  0  0  0  0  0  0  0
   -1.2135   -2.7256    0.0000 N   0  0  0  0  0  0  0  0  0  0  0  0
    0.0000   -3.6073    0.0000 C   0  0  0  0  0  0  0  0  0  0  0  0
    1.2135   -2.7256    0.0000 C   0  0  0  0  0  0  0  0  0  0  0  0
    0.7500   -1.2990    0.0000 C   0  0  0  0  0  0  0  0  0  0  0  0
    1.5000    0.0000    0.0000 C   0  0  0  0  0  0  0  0  0  0  0  0
    3.0000    0.0000    0.0000 C   0  0  0  0  0  0  0  0  0  0  0  0
    4.5000    0.0000    0.0000 N   0  0  0  0  0  0  0  0  0  0  0  0
    0.7500    1.2990    0.0000 C   0  0  0  0  0  0  0  0  0  0  0  0
   -0.7500    1.2990    0.0000 C   0  0  0  0  0  0  0  0  0  0  0  0
   -1.5000    0.0000    0.0000 C   0  0  0  0  0  0  0  0  0  0  0  0
   -0.7500   -1.2990    0.0000 C   0  0  0  0  0  0  0  0  0  0  0  0
  2  1  1  6
  2  3  1  0
  2  4  1  0
  4  5  1  0
  5  6  1  0
  6  7  2  0
  7  8  1  0
  8  9  2  0
  9 10  1  0
  9 11  1  0
 11 12  2  0
  2 13  1  0
 13 14  2  0
 13 15  1  0
 15 16  1  0
 16 17  1  0
 17 18  1  0
 18 19  2  0
 19 20  1  0
 20 21  3  0
 19 22  1  0
 22 23  2  0
 23 24  1  0
 24 25  2  0
 12  6  1  0
 25 15  1  0
 25 18  1  0
M  END
>  <assay_chembl_id>  (426) 
CHEMBL3243251

>  <assay_description>  (426) 
Displacement of [3H]mibolerone from full length human AR expressed in COS cells after 3.5 hrs by liquid scintillation counting

>  <parent_molecule_chembl_id>  (426) 
CHEMBL3238277

>  <canonical_smiles>  (426) 
C[C@](O)(COc1ccc(Cl)cc1)C(=O)N1CCc2c(C#N)cccc21

>  <standard_type>  (426) 
IC50

>  <standard_relation>  (426) 
=

>  <standard_value>  (426) 
36.5

>  <standard_units>  (426) 
nM

>  <target_pref_name>  (426) 
Androgen Receptor

>  <target_chembl_id>  (426) 
CHEMBL1871

>  <target_organism>  (426) 
Homo sapiens

>  <pchembl_median>  (426) 
6.29

$$$$
CHEMBL3238278
     RDKit          2D

 25 27  0  0  0  0  0  0  0  0999 V2000
   -1.4848   -4.9682    0.0000 C   0  0  0  0  0  0  0  0  0  0  0  0
   -2.9520   -4.6564    0.0000 C   0  0  0  0  0  0  0  0  0  0  0  0
   -3.2638   -6.1236    0.0000 O   0  0  0  0  0  0  0  0  0  0  0  0
   -4.4192   -4.3445    0.0000 C   0  0  0  0  0  0  0  0  0  0  0  0
   -5.4229   -5.4592    0.0000 O   0  0  0  0  0  0  0  0  0  0  0  0
   -6.8901   -5.1474    0.0000 C   0  0  0  0  0  0  0  0  0  0  0  0
   -7.3536   -3.7208    0.0000 C   0  0  0  0  0  0  0  0  0  0  0  0
   -8.8209   -3.4089    0.0000 C   0  0  0  0  0  0  0  0  0  0  0  0
   -9.8246   -4.5236    0.0000 C   0  0  0  0  0  0  0  0  0  0  0  0
   -9.3610   -5.9502    0.0000 C   0  0  0  0  0  0  0  0  0  0  0  0
  -10.3647   -7.0649    0.0000 Cl  0  0  0  0  0  0  0  0  0  0  0  0
   -7.8938   -6.2621    0.0000 C   0  0  0  0  0  0  0  0  0  0  0  0
   -2.6401   -3.1891    0.0000 C   0  0  0  0  0  0  0  0  0  0  0  0
   -3.7548   -2.1855    0.0000 O   0  0  0  0  0  0  0  0  0  0  0  0
   -1.2135   -2.7256    0.0000 N   0  0  0  0  0  0  0  0  0  0  0  0
    0.0000   -3.6073    0.0000 C   0  0  0  0  0  0  0  0  0  0  0  0
    1.2135   -2.7256    0.0000 C   0  0  0  0  0  0  0  0  0  0  0  0
    0.7500   -1.2990    0.0000 C   0  0  0  0  0  0  0  0  0  0  0  0
    1.5000    0.0000    0.0000 C   0  0  0  0  0  0  0  0  0  0  0  0
    3.0000    0.0000    0.0000 C   0  0  0  0  0  0  0  0  0  0  0  0
    4.5000    0.0000    0.0000 N   0  0  0  0  0  0  0  0  0  0  0  0
    0.7500    1.2990    0.0000 C   0  0  0  0  0  0  0  0  0  0  0  0
   -0.7500    1.2990    0.0000 C   0  0  0  0  0  0  0  0  0  0  0  0
   -1.5000    0.0000    0.0000 C   0  0  0  0  0  0  0  0  0  0  0  0
   -0.7500   -1.2990    0.0000 C   0  0  0  0  0  0  0  0  0  0  0  0
  2  1  1  6
  2  3  1  0
  2  4  1  0
  4  5  1  0
  5  6  1  0
  6  7  2  0
  7  8  1  0
  8  9  2  0
  9 10  1  0
 10 11  1  0
 10 12  2  0
  2 13  1  0
 13 14  2  0
 13 15  1  0
 15 16  1  0
 16 17  1  0
 17 18  1  0
 18 19  2  0
 19 20  1  0
 20 21  3  0
 19 22  1  0
 22 23  2  0
 23 24  1  0
 24 25  2  0
 12  6  1  0
 25 15  1  0
 25 18  1  0
M  END
>  <assay_chembl_id>  (427) 
CHEMBL3243251

>  <assay_description>  (427) 
Displacement of [3H]mibolerone from full length human AR expressed in COS cells after 3.5 hrs by liquid scintillation counting

>  <parent_molecule_chembl_id>  (427) 
CHEMBL3238278

>  <canonical_smiles>  (427) 
C[C@](O)(COc1cccc(Cl)c1)C(=O)N1CCc2c(C#N)cccc21

>  <standard_type>  (427) 
IC50

>  <standard_relation>  (427) 
=

>  <standard_value>  (427) 
107.0

>  <standard_units>  (427) 
nM

>  <target_pref_name>  (427) 
Androgen Receptor

>  <target_chembl_id>  (427) 
CHEMBL1871

>  <target_organism>  (427) 
Homo sapiens

>  <pchembl_median>  (427) 
7.68

$$$$
CHEMBL3238279
     RDKit          2D

 25 27  0  0  0  0  0  0  0  0999 V2000
   -1.4848   -4.9682    0.0000 C   0  0  0  0  0  0  0  0  0  0  0  0
   -2.9520   -4.6564    0.0000 C   0  0  0  0  0  0  0  0  0  0  0  0
   -3.2638   -6.1236    0.0000 O   0  0  0  0  0  0  0  0  0  0  0  0
   -4.4192   -4.3445    0.0000 C   0  0  0  0  0  0  0  0  0  0  0  0
   -5.4229   -5.4592    0.0000 O   0  0  0  0  0  0  0  0  0  0  0  0
   -6.8901   -5.1474    0.0000 C   0  0  0  0  0  0  0  0  0  0  0  0
   -7.3536   -3.7208    0.0000 C   0  0  0  0  0  0  0  0  0  0  0  0
   -8.8209   -3.4089    0.0000 C   0  0  0  0  0  0  0  0  0  0  0  0
   -9.8246   -4.5236    0.0000 C   0  0  0  0  0  0  0  0  0  0  0  0
   -9.3610   -5.9502    0.0000 C   0  0  0  0  0  0  0  0  0  0  0  0
   -7.8938   -6.2621    0.0000 C   0  0  0  0  0  0  0  0  0  0  0  0
   -7.4303   -7.6887    0.0000 Cl  0  0  0  0  0  0  0  0  0  0  0  0
   -2.6401   -3.1891    0.0000 C   0  0  0  0  0  0  0  0  0  0  0  0
   -3.7548   -2.1855    0.0000 O   0  0  0  0  0  0  0  0  0  0  0  0
   -1.2135   -2.7256    0.0000 N   0  0  0  0  0  0  0  0  0  0  0  0
    0.0000   -3.6073    0.0000 C   0  0  0  0  0  0  0  0  0  0  0  0
    1.2135   -2.7256    0.0000 C   0  0  0  0  0  0  0  0  0  0  0  0
    0.7500   -1.2990    0.0000 C   0  0  0  0  0  0  0  0  0  0  0  0
    1.5000    0.0000    0.0000 C   0  0  0  0  0  0  0  0  0  0  0  0
    3.0000    0.0000    0.0000 C   0  0  0  0  0  0  0  0  0  0  0  0
    4.5000    0.0000    0.0000 N   0  0  0  0  0  0  0  0  0  0  0  0
    0.7500    1.2990    0.0000 C   0  0  0  0  0  0  0  0  0  0  0  0
   -0.7500    1.2990    0.0000 C   0  0  0  0  0  0  0  0  0  0  0  0
   -1.5000    0.0000    0.0000 C   0  0  0  0  0  0  0  0  0  0  0  0
   -0.7500   -1.2990    0.0000 C   0  0  0  0  0  0  0  0  0  0  0  0
  2  1  1  6
  2  3  1  0
  2  4  1  0
  4  5  1  0
  5  6  1  0
  6  7  2  0
  7  8  1  0
  8  9  2  0
  9 10  1  0
 10 11  2  0
 11 12  1  0
  2 13  1  0
 13 14  2  0
 13 15  1  0
 15 16  1  0
 16 17  1  0
 17 18  1  0
 18 19  2  0
 19 20  1  0
 20 21  3  0
 19 22  1  0
 22 23  2  0
 23 24  1  0
 24 25  2  0
 11  6  1  0
 25 15  1  0
 25 18  1  0
M  END
>  <assay_chembl_id>  (428) 
CHEMBL3243251

>  <assay_description>  (428) 
Displacement of [3H]mibolerone from full length human AR expressed in COS cells after 3.5 hrs by liquid scintillation counting

>  <parent_molecule_chembl_id>  (428) 
CHEMBL3238279

>  <canonical_smiles>  (428) 
C[C@](O)(COc1ccccc1Cl)C(=O)N1CCc2c(C#N)cccc21

>  <standard_type>  (428) 
IC50

>  <standard_relation>  (428) 
=

>  <standard_value>  (428) 
56.3

>  <standard_units>  (428) 
nM

>  <target_pref_name>  (428) 
Androgen Receptor

>  <target_chembl_id>  (428) 
CHEMBL1871

>  <target_organism>  (428) 
Homo sapiens

>  <pchembl_median>  (428) 
7.24

$$$$
CHEMBL3238280
     RDKit          2D

 25 27  0  0  0  0  0  0  0  0999 V2000
   -1.4848   -4.9682    0.0000 C   0  0  0  0  0  0  0  0  0  0  0  0
   -2.9520   -4.6564    0.0000 C   0  0  0  0  0  0  0  0  0  0  0  0
   -3.2638   -6.1236    0.0000 O   0  0  0  0  0  0  0  0  0  0  0  0
   -4.4192   -4.3445    0.0000 C   0  0  0  0  0  0  0  0  0  0  0  0
   -5.4229   -5.4592    0.0000 O   0  0  0  0  0  0  0  0  0  0  0  0
   -6.8901   -5.1474    0.0000 C   0  0  0  0  0  0  0  0  0  0  0  0
   -7.3536   -3.7208    0.0000 C   0  0  0  0  0  0  0  0  0  0  0  0
   -8.8209   -3.4089    0.0000 C   0  0  0  0  0  0  0  0  0  0  0  0
   -9.8246   -4.5236    0.0000 C   0  0  0  0  0  0  0  0  0  0  0  0
  -11.2918   -4.2117    0.0000 Br  0  0  0  0  0  0  0  0  0  0  0  0
   -9.3610   -5.9502    0.0000 C   0  0  0  0  0  0  0  0  0  0  0  0
   -7.8938   -6.2621    0.0000 C   0  0  0  0  0  0  0  0  0  0  0  0
   -2.6401   -3.1891    0.0000 C   0  0  0  0  0  0  0  0  0  0  0  0
   -3.7548   -2.1855    0.0000 O   0  0  0  0  0  0  0  0  0  0  0  0
   -1.2135   -2.7256    0.0000 N   0  0  0  0  0  0  0  0  0  0  0  0
    0.0000   -3.6073    0.0000 C   0  0  0  0  0  0  0  0  0  0  0  0
    1.2135   -2.7256    0.0000 C   0  0  0  0  0  0  0  0  0  0  0  0
    0.7500   -1.2990    0.0000 C   0  0  0  0  0  0  0  0  0  0  0  0
    1.5000    0.0000    0.0000 C   0  0  0  0  0  0  0  0  0  0  0  0
    3.0000    0.0000    0.0000 C   0  0  0  0  0  0  0  0  0  0  0  0
    4.5000    0.0000    0.0000 N   0  0  0  0  0  0  0  0  0  0  0  0
    0.7500    1.2990    0.0000 C   0  0  0  0  0  0  0  0  0  0  0  0
   -0.7500    1.2990    0.0000 C   0  0  0  0  0  0  0  0  0  0  0  0
   -1.5000    0.0000    0.0000 C   0  0  0  0  0  0  0  0  0  0  0  0
   -0.7500   -1.2990    0.0000 C   0  0  0  0  0  0  0  0  0  0  0  0
  2  1  1  6
  2  3  1  0
  2  4  1  0
  4  5  1  0
  5  6  1  0
  6  7  2  0
  7  8  1  0
  8  9  2  0
  9 10  1  0
  9 11  1  0
 11 12  2  0
  2 13  1  0
 13 14  2  0
 13 15  1  0
 15 16  1  0
 16 17  1  0
 17 18  1  0
 18 19  2  0
 19 20  1  0
 20 21  3  0
 19 22  1  0
 22 23  2  0
 23 24  1  0
 24 25  2  0
 12  6  1  0
 25 15  1  0
 25 18  1  0
M  END
>  <assay_chembl_id>  (429) 
CHEMBL3243251

>  <assay_description>  (429) 
Displacement of [3H]mibolerone from full length human AR expressed in COS cells after 3.5 hrs by liquid scintillation counting

>  <parent_molecule_chembl_id>  (429) 
CHEMBL3238280

>  <canonical_smiles>  (429) 
C[C@](O)(COc1ccc(Br)cc1)C(=O)N1CCc2c(C#N)cccc21

>  <standard_type>  (429) 
IC50

>  <standard_relation>  (429) 
=

>  <standard_value>  (429) 
2.4

>  <standard_units>  (429) 
nM

>  <target_pref_name>  (429) 
Androgen Receptor

>  <target_chembl_id>  (429) 
CHEMBL1871

>  <target_organism>  (429) 
Homo sapiens

>  <pchembl_median>  (429) 
6.53

$$$$
CHEMBL3238281
     RDKit          2D

 28 30  0  0  0  0  0  0  0  0999 V2000
   -1.4848   -4.9682    0.0000 C   0  0  0  0  0  0  0  0  0  0  0  0
   -2.9520   -4.6564    0.0000 C   0  0  0  0  0  0  0  0  0  0  0  0
   -3.2638   -6.1236    0.0000 O   0  0  0  0  0  0  0  0  0  0  0  0
   -4.4192   -4.3445    0.0000 C   0  0  0  0  0  0  0  0  0  0  0  0
   -5.4229   -5.4592    0.0000 O   0  0  0  0  0  0  0  0  0  0  0  0
   -6.8901   -5.1474    0.0000 C   0  0  0  0  0  0  0  0  0  0  0  0
   -7.3536   -3.7208    0.0000 C   0  0  0  0  0  0  0  0  0  0  0  0
   -8.8209   -3.4089    0.0000 C   0  0  0  0  0  0  0  0  0  0  0  0
   -9.8246   -4.5236    0.0000 C   0  0  0  0  0  0  0  0  0  0  0  0
  -11.2918   -4.2117    0.0000 C   0  0  0  0  0  0  0  0  0  0  0  0
  -12.7590   -3.8999    0.0000 F   0  0  0  0  0  0  0  0  0  0  0  0
  -10.9799   -2.7445    0.0000 F   0  0  0  0  0  0  0  0  0  0  0  0
  -11.6036   -5.6790    0.0000 F   0  0  0  0  0  0  0  0  0  0  0  0
   -9.3610   -5.9502    0.0000 C   0  0  0  0  0  0  0  0  0  0  0  0
   -7.8938   -6.2621    0.0000 C   0  0  0  0  0  0  0  0  0  0  0  0
   -2.6401   -3.1891    0.0000 C   0  0  0  0  0  0  0  0  0  0  0  0
   -3.7548   -2.1855    0.0000 O   0  0  0  0  0  0  0  0  0  0  0  0
   -1.2135   -2.7256    0.0000 N   0  0  0  0  0  0  0  0  0  0  0  0
    0.0000   -3.6073    0.0000 C   0  0  0  0  0  0  0  0  0  0  0  0
    1.2135   -2.7256    0.0000 C   0  0  0  0  0  0  0  0  0  0  0  0
    0.7500   -1.2990    0.0000 C   0  0  0  0  0  0  0  0  0  0  0  0
    1.5000    0.0000    0.0000 C   0  0  0  0  0  0  0  0  0  0  0  0
    3.0000    0.0000    0.0000 C   0  0  0  0  0  0  0  0  0  0  0  0
    4.5000    0.0000    0.0000 N   0  0  0  0  0  0  0  0  0  0  0  0
    0.7500    1.2990    0.0000 C   0  0  0  0  0  0  0  0  0  0  0  0
   -0.7500    1.2990    0.0000 C   0  0  0  0  0  0  0  0  0  0  0  0
   -1.5000    0.0000    0.0000 C   0  0  0  0  0  0  0  0  0  0  0  0
   -0.7500   -1.2990    0.0000 C   0  0  0  0  0  0  0  0  0  0  0  0
  2  1  1  6
  2  3  1  0
  2  4  1  0
  4  5  1  0
  5  6  1  0
  6  7  2  0
  7  8  1  0
  8  9  2  0
  9 10  1  0
 10 11  1  0
 10 12  1  0
 10 13  1  0
  9 14  1  0
 14 15  2  0
  2 16  1  0
 16 17  2  0
 16 18  1  0
 18 19  1  0
 19 20  1  0
 20 21  1  0
 21 22  2  0
 22 23  1  0
 23 24  3  0
 22 25  1  0
 25 26  2  0
 26 27  1  0
 27 28  2  0
 15  6  1  0
 28 18  1  0
 28 21  1  0
M  END
>  <assay_chembl_id>  (430) 
CHEMBL3243251

>  <assay_description>  (430) 
Displacement of [3H]mibolerone from full length human AR expressed in COS cells after 3.5 hrs by liquid scintillation counting

>  <parent_molecule_chembl_id>  (430) 
CHEMBL3238281

>  <canonical_smiles>  (430) 
C[C@](O)(COc1ccc(C(F)(F)F)cc1)C(=O)N1CCc2c(C#N)cccc21

>  <standard_type>  (430) 
IC50

>  <standard_relation>  (430) 
=

>  <standard_value>  (430) 
33.1

>  <standard_units>  (430) 
nM

>  <target_pref_name>  (430) 
Androgen Receptor

>  <target_chembl_id>  (430) 
CHEMBL1871

>  <target_organism>  (430) 
Homo sapiens

>  <pchembl_median>  (430) 
5.94

$$$$
CHEMBL3238282
     RDKit          2D

 26 28  0  0  0  0  0  0  0  0999 V2000
  -11.7553   -2.7852    0.0000 C   0  0  0  0  0  0  0  0  0  0  0  0
  -11.2918   -4.2117    0.0000 O   0  0  0  0  0  0  0  0  0  0  0  0
   -9.8246   -4.5236    0.0000 C   0  0  0  0  0  0  0  0  0  0  0  0
   -8.8209   -3.4089    0.0000 C   0  0  0  0  0  0  0  0  0  0  0  0
   -7.3536   -3.7208    0.0000 C   0  0  0  0  0  0  0  0  0  0  0  0
   -6.8901   -5.1474    0.0000 C   0  0  0  0  0  0  0  0  0  0  0  0
   -5.4229   -5.4592    0.0000 O   0  0  0  0  0  0  0  0  0  0  0  0
   -4.4192   -4.3445    0.0000 C   0  0  0  0  0  0  0  0  0  0  0  0
   -2.9520   -4.6564    0.0000 C   0  0  0  0  0  0  0  0  0  0  0  0
   -1.4848   -4.9682    0.0000 C   0  0  0  0  0  0  0  0  0  0  0  0
   -3.2638   -6.1236    0.0000 O   0  0  0  0  0  0  0  0  0  0  0  0
   -2.6401   -3.1891    0.0000 C   0  0  0  0  0  0  0  0  0  0  0  0
   -3.7548   -2.1855    0.0000 O   0  0  0  0  0  0  0  0  0  0  0  0
   -1.2135   -2.7256    0.0000 N   0  0  0  0  0  0  0  0  0  0  0  0
    0.0000   -3.6073    0.0000 C   0  0  0  0  0  0  0  0  0  0  0  0
    1.2135   -2.7256    0.0000 C   0  0  0  0  0  0  0  0  0  0  0  0
    0.7500   -1.2990    0.0000 C   0  0  0  0  0  0  0  0  0  0  0  0
    1.5000    0.0000    0.0000 C   0  0  0  0  0  0  0  0  0  0  0  0
    3.0000    0.0000    0.0000 C   0  0  0  0  0  0  0  0  0  0  0  0
    4.5000    0.0000    0.0000 N   0  0  0  0  0  0  0  0  0  0  0  0
    0.7500    1.2990    0.0000 C   0  0  0  0  0  0  0  0  0  0  0  0
   -0.7500    1.2990    0.0000 C   0  0  0  0  0  0  0  0  0  0  0  0
   -1.5000    0.0000    0.0000 C   0  0  0  0  0  0  0  0  0  0  0  0
   -0.7500   -1.2990    0.0000 C   0  0  0  0  0  0  0  0  0  0  0  0
   -7.8938   -6.2621    0.0000 C   0  0  0  0  0  0  0  0  0  0  0  0
   -9.3610   -5.9502    0.0000 C   0  0  0  0  0  0  0  0  0  0  0  0
  1  2  1  0
  2  3  1  0
  3  4  2  0
  4  5  1  0
  5  6  2  0
  6  7  1  0
  7  8  1  0
  8  9  1  0
  9 10  1  6
  9 11  1  0
  9 12  1  0
 12 13  2  0
 12 14  1  0
 14 15  1  0
 15 16  1  0
 16 17  1  0
 17 18  2  0
 18 19  1  0
 19 20  3  0
 18 21  1  0
 21 22  2  0
 22 23  1  0
 23 24  2  0
  6 25  1  0
 25 26  2  0
 26  3  1  0
 24 14  1  0
 24 17  1  0
M  END
>  <assay_chembl_id>  (431) 
CHEMBL3243251

>  <assay_description>  (431) 
Displacement of [3H]mibolerone from full length human AR expressed in COS cells after 3.5 hrs by liquid scintillation counting

>  <parent_molecule_chembl_id>  (431) 
CHEMBL3238282

>  <canonical_smiles>  (431) 
COc1ccc(OC[C@](C)(O)C(=O)N2CCc3c(C#N)cccc32)cc1

>  <standard_type>  (431) 
IC50

>  <standard_relation>  (431) 
=

>  <standard_value>  (431) 
145.5

>  <standard_units>  (431) 
nM

>  <target_pref_name>  (431) 
Androgen Receptor

>  <target_chembl_id>  (431) 
CHEMBL1871

>  <target_organism>  (431) 
Homo sapiens

>  <pchembl_median>  (431) 
6.23

$$$$
CHEMBL3238283
     RDKit          2D

 28 30  0  0  0  0  0  0  0  0999 V2000
  -13.2225   -2.4733    0.0000 C   0  0  0  0  0  0  0  0  0  0  0  0
  -11.7553   -2.7852    0.0000 O   0  0  0  0  0  0  0  0  0  0  0  0
  -11.2918   -4.2117    0.0000 C   0  0  0  0  0  0  0  0  0  0  0  0
  -12.2955   -5.3265    0.0000 O   0  0  0  0  0  0  0  0  0  0  0  0
   -9.8246   -4.5236    0.0000 C   0  0  0  0  0  0  0  0  0  0  0  0
   -8.8209   -3.4089    0.0000 C   0  0  0  0  0  0  0  0  0  0  0  0
   -7.3536   -3.7208    0.0000 C   0  0  0  0  0  0  0  0  0  0  0  0
   -6.8901   -5.1474    0.0000 C   0  0  0  0  0  0  0  0  0  0  0  0
   -5.4229   -5.4592    0.0000 O   0  0  0  0  0  0  0  0  0  0  0  0
   -4.4192   -4.3445    0.0000 C   0  0  0  0  0  0  0  0  0  0  0  0
   -2.9520   -4.6564    0.0000 C   0  0  0  0  0  0  0  0  0  0  0  0
   -1.4848   -4.9682    0.0000 C   0  0  0  0  0  0  0  0  0  0  0  0
   -3.2638   -6.1236    0.0000 O   0  0  0  0  0  0  0  0  0  0  0  0
   -2.6401   -3.1891    0.0000 C   0  0  0  0  0  0  0  0  0  0  0  0
   -3.7548   -2.1855    0.0000 O   0  0  0  0  0  0  0  0  0  0  0  0
   -1.2135   -2.7256    0.0000 N   0  0  0  0  0  0  0  0  0  0  0  0
    0.0000   -3.6073    0.0000 C   0  0  0  0  0  0  0  0  0  0  0  0
    1.2135   -2.7256    0.0000 C   0  0  0  0  0  0  0  0  0  0  0  0
    0.7500   -1.2990    0.0000 C   0  0  0  0  0  0  0  0  0  0  0  0
    1.5000    0.0000    0.0000 C   0  0  0  0  0  0  0  0  0  0  0  0
    3.0000    0.0000    0.0000 C   0  0  0  0  0  0  0  0  0  0  0  0
    4.5000    0.0000    0.0000 N   0  0  0  0  0  0  0  0  0  0  0  0
    0.7500    1.2990    0.0000 C   0  0  0  0  0  0  0  0  0  0  0  0
   -0.7500    1.2990    0.0000 C   0  0  0  0  0  0  0  0  0  0  0  0
   -1.5000    0.0000    0.0000 C   0  0  0  0  0  0  0  0  0  0  0  0
   -0.7500   -1.2990    0.0000 C   0  0  0  0  0  0  0  0  0  0  0  0
   -7.8938   -6.2621    0.0000 C   0  0  0  0  0  0  0  0  0  0  0  0
   -9.3610   -5.9502    0.0000 C   0  0  0  0  0  0  0  0  0  0  0  0
  1  2  1  0
  2  3  1  0
  3  4  2  0
  3  5  1  0
  5  6  2  0
  6  7  1  0
  7  8  2  0
  8  9  1  0
  9 10  1  0
 10 11  1  0
 11 12  1  6
 11 13  1  0
 11 14  1  0
 14 15  2  0
 14 16  1  0
 16 17  1  0
 17 18  1  0
 18 19  1  0
 19 20  2  0
 20 21  1  0
 21 22  3  0
 20 23  1  0
 23 24  2  0
 24 25  1  0
 25 26  2  0
  8 27  1  0
 27 28  2  0
 28  5  1  0
 26 16  1  0
 26 19  1  0
M  END
>  <assay_chembl_id>  (432) 
CHEMBL3243251

>  <assay_description>  (432) 
Displacement of [3H]mibolerone from full length human AR expressed in COS cells after 3.5 hrs by liquid scintillation counting

>  <parent_molecule_chembl_id>  (432) 
CHEMBL3238283

>  <canonical_smiles>  (432) 
COC(=O)c1ccc(OC[C@](C)(O)C(=O)N2CCc3c(C#N)cccc32)cc1

>  <standard_type>  (432) 
IC50

>  <standard_relation>  (432) 
=

>  <standard_value>  (432) 
133.2

>  <standard_units>  (432) 
nM

>  <target_pref_name>  (432) 
Androgen Receptor

>  <target_chembl_id>  (432) 
CHEMBL1871

>  <target_organism>  (432) 
Homo sapiens

>  <pchembl_median>  (432) 
7.38

$$$$
CHEMBL3238284
     RDKit          2D

 29 32  0  0  0  0  0  0  0  0999 V2000
   -1.4848   -4.9682    0.0000 C   0  0  0  0  0  0  0  0  0  0  0  0
   -2.9520   -4.6564    0.0000 C   0  0  0  0  0  0  0  0  0  0  0  0
   -3.2638   -6.1236    0.0000 O   0  0  0  0  0  0  0  0  0  0  0  0
   -4.4192   -4.3445    0.0000 C   0  0  0  0  0  0  0  0  0  0  0  0
   -5.4229   -5.4592    0.0000 O   0  0  0  0  0  0  0  0  0  0  0  0
   -6.8901   -5.1474    0.0000 C   0  0  0  0  0  0  0  0  0  0  0  0
   -7.3536   -3.7208    0.0000 C   0  0  0  0  0  0  0  0  0  0  0  0
   -8.8209   -3.4089    0.0000 C   0  0  0  0  0  0  0  0  0  0  0  0
   -9.8246   -4.5236    0.0000 C   0  0  0  0  0  0  0  0  0  0  0  0
  -11.2918   -4.2117    0.0000 C   0  0  0  0  0  0  0  0  0  0  0  0
  -12.4065   -5.2154    0.0000 C   0  0  0  0  0  0  0  0  0  0  0  0
  -13.7055   -4.4654    0.0000 O   0  0  0  0  0  0  0  0  0  0  0  0
  -13.3937   -2.9982    0.0000 C   0  0  0  0  0  0  0  0  0  0  0  0
  -11.9019   -2.8414    0.0000 N   0  0  0  0  0  0  0  0  0  0  0  0
   -9.3610   -5.9502    0.0000 C   0  0  0  0  0  0  0  0  0  0  0  0
   -7.8938   -6.2621    0.0000 C   0  0  0  0  0  0  0  0  0  0  0  0
   -2.6401   -3.1891    0.0000 C   0  0  0  0  0  0  0  0  0  0  0  0
   -3.7548   -2.1855    0.0000 O   0  0  0  0  0  0  0  0  0  0  0  0
   -1.2135   -2.7256    0.0000 N   0  0  0  0  0  0  0  0  0  0  0  0
    0.0000   -3.6073    0.0000 C   0  0  0  0  0  0  0  0  0  0  0  0
    1.2135   -2.7256    0.0000 C   0  0  0  0  0  0  0  0  0  0  0  0
    0.7500   -1.2990    0.0000 C   0  0  0  0  0  0  0  0  0  0  0  0
    1.5000    0.0000    0.0000 C   0  0  0  0  0  0  0  0  0  0  0  0
    3.0000    0.0000    0.0000 C   0  0  0  0  0  0  0  0  0  0  0  0
    4.5000    0.0000    0.0000 N   0  0  0  0  0  0  0  0  0  0  0  0
    0.7500    1.2990    0.0000 C   0  0  0  0  0  0  0  0  0  0  0  0
   -0.7500    1.2990    0.0000 C   0  0  0  0  0  0  0  0  0  0  0  0
   -1.5000    0.0000    0.0000 C   0  0  0  0  0  0  0  0  0  0  0  0
   -0.7500   -1.2990    0.0000 C   0  0  0  0  0  0  0  0  0  0  0  0
  2  1  1  6
  2  3  1  0
  2  4  1  0
  4  5  1  0
  5  6  1  0
  6  7  2  0
  7  8  1  0
  8  9  2  0
  9 10  1  0
 10 11  2  0
 11 12  1  0
 12 13  1  0
 13 14  2  0
  9 15  1  0
 15 16  2  0
  2 17  1  0
 17 18  2  0
 17 19  1  0
 19 20  1  0
 20 21  1  0
 21 22  1  0
 22 23  2  0
 23 24  1  0
 24 25  3  0
 23 26  1  0
 26 27  2  0
 27 28  1  0
 28 29  2  0
 16  6  1  0
 29 19  1  0
 14 10  1  0
 29 22  1  0
M  END
>  <assay_chembl_id>  (433) 
CHEMBL3243251

>  <assay_description>  (433) 
Displacement of [3H]mibolerone from full length human AR expressed in COS cells after 3.5 hrs by liquid scintillation counting

>  <parent_molecule_chembl_id>  (433) 
CHEMBL3238284

>  <canonical_smiles>  (433) 
C[C@](O)(COc1ccc(-c2cocn2)cc1)C(=O)N1CCc2c(C#N)cccc21

>  <standard_type>  (433) 
IC50

>  <standard_relation>  (433) 
=

>  <standard_value>  (433) 
179.4

>  <standard_units>  (433) 
nM

>  <target_pref_name>  (433) 
Androgen Receptor

>  <target_chembl_id>  (433) 
CHEMBL1871

>  <target_organism>  (433) 
Homo sapiens

>  <pchembl_median>  (433) 
6.26

$$$$
CHEMBL3238285
     RDKit          2D

 26 28  0  0  0  0  0  0  0  0999 V2000
   -1.4848   -4.9682    0.0000 C   0  0  0  0  0  0  0  0  0  0  0  0
   -2.9520   -4.6564    0.0000 C   0  0  0  0  0  0  0  0  0  0  0  0
   -3.2638   -6.1236    0.0000 O   0  0  0  0  0  0  0  0  0  0  0  0
   -4.4192   -4.3445    0.0000 C   0  0  0  0  0  0  0  0  0  0  0  0
   -5.4229   -5.4592    0.0000 O   0  0  0  0  0  0  0  0  0  0  0  0
   -6.8901   -5.1474    0.0000 C   0  0  0  0  0  0  0  0  0  0  0  0
   -7.3536   -3.7208    0.0000 C   0  0  0  0  0  0  0  0  0  0  0  0
   -8.8209   -3.4089    0.0000 C   0  0  0  0  0  0  0  0  0  0  0  0
   -9.8246   -4.5236    0.0000 C   0  0  0  0  0  0  0  0  0  0  0  0
  -11.2918   -4.2117    0.0000 C   0  0  0  0  0  0  0  0  0  0  0  0
  -12.7590   -3.8999    0.0000 N   0  0  0  0  0  0  0  0  0  0  0  0
   -9.3610   -5.9502    0.0000 C   0  0  0  0  0  0  0  0  0  0  0  0
   -7.8938   -6.2621    0.0000 C   0  0  0  0  0  0  0  0  0  0  0  0
   -2.6401   -3.1891    0.0000 C   0  0  0  0  0  0  0  0  0  0  0  0
   -3.7548   -2.1855    0.0000 O   0  0  0  0  0  0  0  0  0  0  0  0
   -1.2135   -2.7256    0.0000 N   0  0  0  0  0  0  0  0  0  0  0  0
    0.0000   -3.6073    0.0000 C   0  0  0  0  0  0  0  0  0  0  0  0
    1.2135   -2.7256    0.0000 C   0  0  0  0  0  0  0  0  0  0  0  0
    0.7500   -1.2990    0.0000 C   0  0  0  0  0  0  0  0  0  0  0  0
    1.5000    0.0000    0.0000 C   0  0  0  0  0  0  0  0  0  0  0  0
    3.0000    0.0000    0.0000 C   0  0  0  0  0  0  0  0  0  0  0  0
    4.5000    0.0000    0.0000 N   0  0  0  0  0  0  0  0  0  0  0  0
    0.7500    1.2990    0.0000 C   0  0  0  0  0  0  0  0  0  0  0  0
   -0.7500    1.2990    0.0000 C   0  0  0  0  0  0  0  0  0  0  0  0
   -1.5000    0.0000    0.0000 C   0  0  0  0  0  0  0  0  0  0  0  0
   -0.7500   -1.2990    0.0000 C   0  0  0  0  0  0  0  0  0  0  0  0
  2  1  1  6
  2  3  1  0
  2  4  1  0
  4  5  1  0
  5  6  1  0
  6  7  2  0
  7  8  1  0
  8  9  2  0
  9 10  1  0
 10 11  3  0
  9 12  1  0
 12 13  2  0
  2 14  1  0
 14 15  2  0
 14 16  1  0
 16 17  1  0
 17 18  1  0
 18 19  1  0
 19 20  2  0
 20 21  1  0
 21 22  3  0
 20 23  1  0
 23 24  2  0
 24 25  1  0
 25 26  2  0
 13  6  1  0
 26 16  1  0
 26 19  1  0
M  END
>  <assay_chembl_id>  (434) 
CHEMBL3243251

>  <assay_description>  (434) 
Displacement of [3H]mibolerone from full length human AR expressed in COS cells after 3.5 hrs by liquid scintillation counting

>  <parent_molecule_chembl_id>  (434) 
CHEMBL3238285

>  <canonical_smiles>  (434) 
C[C@](O)(COc1ccc(C#N)cc1)C(=O)N1CCc2c(C#N)cccc21

>  <standard_type>  (434) 
IC50

>  <standard_relation>  (434) 
=

>  <standard_value>  (434) 
16.4

>  <standard_units>  (434) 
nM

>  <target_pref_name>  (434) 
Androgen Receptor

>  <target_chembl_id>  (434) 
CHEMBL1871

>  <target_organism>  (434) 
Homo sapiens

>  <pchembl_median>  (434) 
7.12

$$$$
CHEMBL3238286
     RDKit          2D

 28 30  0  0  0  0  0  0  0  0999 V2000
   -1.4848   -4.9682    0.0000 C   0  0  0  0  0  0  0  0  0  0  0  0
   -2.9520   -4.6564    0.0000 C   0  0  0  0  0  0  0  0  0  0  0  0
   -3.2638   -6.1236    0.0000 O   0  0  0  0  0  0  0  0  0  0  0  0
   -4.4192   -4.3445    0.0000 C   0  0  0  0  0  0  0  0  0  0  0  0
   -5.4229   -5.4592    0.0000 O   0  0  0  0  0  0  0  0  0  0  0  0
   -6.8901   -5.1474    0.0000 C   0  0  0  0  0  0  0  0  0  0  0  0
   -7.3536   -3.7208    0.0000 C   0  0  0  0  0  0  0  0  0  0  0  0
   -8.8209   -3.4089    0.0000 C   0  0  0  0  0  0  0  0  0  0  0  0
   -9.8246   -4.5236    0.0000 C   0  0  0  0  0  0  0  0  0  0  0  0
   -9.3610   -5.9502    0.0000 C   0  0  0  0  0  0  0  0  0  0  0  0
   -7.8938   -6.2621    0.0000 C   0  0  0  0  0  0  0  0  0  0  0  0
   -7.4303   -7.6887    0.0000 C   0  0  0  0  0  0  0  0  0  0  0  0
   -6.9668   -9.1152    0.0000 F   0  0  0  0  0  0  0  0  0  0  0  0
   -8.8569   -8.1522    0.0000 F   0  0  0  0  0  0  0  0  0  0  0  0
   -6.0037   -7.2251    0.0000 F   0  0  0  0  0  0  0  0  0  0  0  0
   -2.6401   -3.1891    0.0000 C   0  0  0  0  0  0  0  0  0  0  0  0
   -3.7548   -2.1855    0.0000 O   0  0  0  0  0  0  0  0  0  0  0  0
   -1.2135   -2.7256    0.0000 N   0  0  0  0  0  0  0  0  0  0  0  0
    0.0000   -3.6073    0.0000 C   0  0  0  0  0  0  0  0  0  0  0  0
    1.2135   -2.7256    0.0000 C   0  0  0  0  0  0  0  0  0  0  0  0
    0.7500   -1.2990    0.0000 C   0  0  0  0  0  0  0  0  0  0  0  0
    1.5000    0.0000    0.0000 C   0  0  0  0  0  0  0  0  0  0  0  0
    3.0000    0.0000    0.0000 C   0  0  0  0  0  0  0  0  0  0  0  0
    4.5000    0.0000    0.0000 N   0  0  0  0  0  0  0  0  0  0  0  0
    0.7500    1.2990    0.0000 C   0  0  0  0  0  0  0  0  0  0  0  0
   -0.7500    1.2990    0.0000 C   0  0  0  0  0  0  0  0  0  0  0  0
   -1.5000    0.0000    0.0000 C   0  0  0  0  0  0  0  0  0  0  0  0
   -0.7500   -1.2990    0.0000 C   0  0  0  0  0  0  0  0  0  0  0  0
  2  1  1  6
  2  3  1  0
  2  4  1  0
  4  5  1  0
  5  6  1  0
  6  7  2  0
  7  8  1  0
  8  9  2  0
  9 10  1  0
 10 11  2  0
 11 12  1  0
 12 13  1  0
 12 14  1  0
 12 15  1  0
  2 16  1  0
 16 17  2  0
 16 18  1  0
 18 19  1  0
 19 20  1  0
 20 21  1  0
 21 22  2  0
 22 23  1  0
 23 24  3  0
 22 25  1  0
 25 26  2  0
 26 27  1  0
 27 28  2  0
 11  6  1  0
 28 18  1  0
 28 21  1  0
M  END
>  <assay_chembl_id>  (435) 
CHEMBL3243251

>  <assay_description>  (435) 
Displacement of [3H]mibolerone from full length human AR expressed in COS cells after 3.5 hrs by liquid scintillation counting

>  <parent_molecule_chembl_id>  (435) 
CHEMBL3238286

>  <canonical_smiles>  (435) 
C[C@](O)(COc1ccccc1C(F)(F)F)C(=O)N1CCc2c(C#N)cccc21

>  <standard_type>  (435) 
IC50

>  <standard_relation>  (435) 
=

>  <standard_value>  (435) 
60.9

>  <standard_units>  (435) 
nM

>  <target_pref_name>  (435) 
Androgen Receptor

>  <target_chembl_id>  (435) 
CHEMBL1871

>  <target_organism>  (435) 
Homo sapiens

>  <pchembl_median>  (435) 
7.64

$$$$
CHEMBL3238287
     RDKit          2D

 26 28  0  0  0  0  0  0  0  0999 V2000
   -1.4848   -4.9682    0.0000 C   0  0  0  0  0  0  0  0  0  0  0  0
   -2.9520   -4.6564    0.0000 C   0  0  0  0  0  0  0  0  0  0  0  0
   -3.2638   -6.1236    0.0000 O   0  0  0  0  0  0  0  0  0  0  0  0
   -4.4192   -4.3445    0.0000 C   0  0  0  0  0  0  0  0  0  0  0  0
   -5.4229   -5.4592    0.0000 O   0  0  0  0  0  0  0  0  0  0  0  0
   -6.8901   -5.1474    0.0000 C   0  0  0  0  0  0  0  0  0  0  0  0
   -7.3536   -3.7208    0.0000 C   0  0  0  0  0  0  0  0  0  0  0  0
   -8.8209   -3.4089    0.0000 C   0  0  0  0  0  0  0  0  0  0  0  0
   -9.8246   -4.5236    0.0000 C   0  0  0  0  0  0  0  0  0  0  0  0
   -9.3610   -5.9502    0.0000 C   0  0  0  0  0  0  0  0  0  0  0  0
   -7.8938   -6.2621    0.0000 C   0  0  0  0  0  0  0  0  0  0  0  0
   -7.4303   -7.6887    0.0000 C   0  0  0  0  0  0  0  0  0  0  0  0
   -6.9668   -9.1152    0.0000 N   0  0  0  0  0  0  0  0  0  0  0  0
   -2.6401   -3.1891    0.0000 C   0  0  0  0  0  0  0  0  0  0  0  0
   -3.7548   -2.1855    0.0000 O   0  0  0  0  0  0  0  0  0  0  0  0
   -1.2135   -2.7256    0.0000 N   0  0  0  0  0  0  0  0  0  0  0  0
    0.0000   -3.6073    0.0000 C   0  0  0  0  0  0  0  0  0  0  0  0
    1.2135   -2.7256    0.0000 C   0  0  0  0  0  0  0  0  0  0  0  0
    0.7500   -1.2990    0.0000 C   0  0  0  0  0  0  0  0  0  0  0  0
    1.5000    0.0000    0.0000 C   0  0  0  0  0  0  0  0  0  0  0  0
    3.0000    0.0000    0.0000 C   0  0  0  0  0  0  0  0  0  0  0  0
    4.5000    0.0000    0.0000 N   0  0  0  0  0  0  0  0  0  0  0  0
    0.7500    1.2990    0.0000 C   0  0  0  0  0  0  0  0  0  0  0  0
   -0.7500    1.2990    0.0000 C   0  0  0  0  0  0  0  0  0  0  0  0
   -1.5000    0.0000    0.0000 C   0  0  0  0  0  0  0  0  0  0  0  0
   -0.7500   -1.2990    0.0000 C   0  0  0  0  0  0  0  0  0  0  0  0
  2  1  1  6
  2  3  1  0
  2  4  1  0
  4  5  1  0
  5  6  1  0
  6  7  2  0
  7  8  1  0
  8  9  2  0
  9 10  1  0
 10 11  2  0
 11 12  1  0
 12 13  3  0
  2 14  1  0
 14 15  2  0
 14 16  1  0
 16 17  1  0
 17 18  1  0
 18 19  1  0
 19 20  2  0
 20 21  1  0
 21 22  3  0
 20 23  1  0
 23 24  2  0
 24 25  1  0
 25 26  2  0
 11  6  1  0
 26 16  1  0
 26 19  1  0
M  END
>  <assay_chembl_id>  (436) 
CHEMBL3243251

>  <assay_description>  (436) 
Displacement of [3H]mibolerone from full length human AR expressed in COS cells after 3.5 hrs by liquid scintillation counting

>  <parent_molecule_chembl_id>  (436) 
CHEMBL3238287

>  <canonical_smiles>  (436) 
C[C@](O)(COc1ccccc1C#N)C(=O)N1CCc2c(C#N)cccc21

>  <standard_type>  (436) 
IC50

>  <standard_relation>  (436) 
=

>  <standard_value>  (436) 
14.3

>  <standard_units>  (436) 
nM

>  <target_pref_name>  (436) 
Androgen Receptor

>  <target_chembl_id>  (436) 
CHEMBL1871

>  <target_organism>  (436) 
Homo sapiens

>  <pchembl_median>  (436) 
7.72

$$$$
CHEMBL3238288
     RDKit          2D

 27 29  0  0  0  0  0  0  0  0999 V2000
   -1.4848   -4.9682    0.0000 C   0  0  0  0  0  0  0  0  0  0  0  0
   -2.9520   -4.6564    0.0000 C   0  0  0  0  0  0  0  0  0  0  0  0
   -3.2638   -6.1236    0.0000 O   0  0  0  0  0  0  0  0  0  0  0  0
   -4.4192   -4.3445    0.0000 C   0  0  0  0  0  0  0  0  0  0  0  0
   -5.4229   -5.4592    0.0000 O   0  0  0  0  0  0  0  0  0  0  0  0
   -6.8901   -5.1474    0.0000 C   0  0  0  0  0  0  0  0  0  0  0  0
   -7.3536   -3.7208    0.0000 C   0  0  0  0  0  0  0  0  0  0  0  0
   -8.8209   -3.4089    0.0000 C   0  0  0  0  0  0  0  0  0  0  0  0
   -9.8246   -4.5236    0.0000 C   0  0  0  0  0  0  0  0  0  0  0  0
  -11.2918   -4.2117    0.0000 F   0  0  0  0  0  0  0  0  0  0  0  0
   -9.3610   -5.9502    0.0000 C   0  0  0  0  0  0  0  0  0  0  0  0
   -7.8938   -6.2621    0.0000 C   0  0  0  0  0  0  0  0  0  0  0  0
   -7.4303   -7.6887    0.0000 C   0  0  0  0  0  0  0  0  0  0  0  0
   -6.9668   -9.1152    0.0000 N   0  0  0  0  0  0  0  0  0  0  0  0
   -2.6401   -3.1891    0.0000 C   0  0  0  0  0  0  0  0  0  0  0  0
   -3.7548   -2.1855    0.0000 O   0  0  0  0  0  0  0  0  0  0  0  0
   -1.2135   -2.7256    0.0000 N   0  0  0  0  0  0  0  0  0  0  0  0
    0.0000   -3.6073    0.0000 C   0  0  0  0  0  0  0  0  0  0  0  0
    1.2135   -2.7256    0.0000 C   0  0  0  0  0  0  0  0  0  0  0  0
    0.7500   -1.2990    0.0000 C   0  0  0  0  0  0  0  0  0  0  0  0
    1.5000    0.0000    0.0000 C   0  0  0  0  0  0  0  0  0  0  0  0
    3.0000    0.0000    0.0000 C   0  0  0  0  0  0  0  0  0  0  0  0
    4.5000    0.0000    0.0000 N   0  0  0  0  0  0  0  0  0  0  0  0
    0.7500    1.2990    0.0000 C   0  0  0  0  0  0  0  0  0  0  0  0
   -0.7500    1.2990    0.0000 C   0  0  0  0  0  0  0  0  0  0  0  0
   -1.5000    0.0000    0.0000 C   0  0  0  0  0  0  0  0  0  0  0  0
   -0.7500   -1.2990    0.0000 C   0  0  0  0  0  0  0  0  0  0  0  0
  2  1  1  6
  2  3  1  0
  2  4  1  0
  4  5  1  0
  5  6  1  0
  6  7  2  0
  7  8  1  0
  8  9  2  0
  9 10  1  0
  9 11  1  0
 11 12  2  0
 12 13  1  0
 13 14  3  0
  2 15  1  0
 15 16  2  0
 15 17  1  0
 17 18  1  0
 18 19  1  0
 19 20  1  0
 20 21  2  0
 21 22  1  0
 22 23  3  0
 21 24  1  0
 24 25  2  0
 25 26  1  0
 26 27  2  0
 12  6  1  0
 27 17  1  0
 27 20  1  0
M  END
>  <assay_chembl_id>  (437) 
CHEMBL3243251

>  <assay_description>  (437) 
Displacement of [3H]mibolerone from full length human AR expressed in COS cells after 3.5 hrs by liquid scintillation counting

>  <parent_molecule_chembl_id>  (437) 
CHEMBL3238288

>  <canonical_smiles>  (437) 
C[C@](O)(COc1ccc(F)cc1C#N)C(=O)N1CCc2c(C#N)cccc21

>  <standard_type>  (437) 
IC50

>  <standard_relation>  (437) 
=

>  <standard_value>  (437) 
9.1

>  <standard_units>  (437) 
nM

>  <target_pref_name>  (437) 
Androgen Receptor

>  <target_chembl_id>  (437) 
CHEMBL1871

>  <target_organism>  (437) 
Homo sapiens

>  <pchembl_median>  (437) 
7.85

$$$$
CHEMBL3238289
     RDKit          2D

 26 28  0  0  0  0  0  0  0  0999 V2000
   -1.4848   -4.9682    0.0000 C   0  0  0  0  0  0  0  0  0  0  0  0
   -2.9520   -4.6564    0.0000 C   0  0  0  0  0  0  0  0  0  0  0  0
   -3.2638   -6.1236    0.0000 O   0  0  0  0  0  0  0  0  0  0  0  0
   -4.4192   -4.3445    0.0000 C   0  0  0  0  0  0  0  0  0  0  0  0
   -5.4229   -5.4592    0.0000 O   0  0  0  0  0  0  0  0  0  0  0  0
   -6.8901   -5.1474    0.0000 C   0  0  0  0  0  0  0  0  0  0  0  0
   -7.3536   -3.7208    0.0000 C   0  0  0  0  0  0  0  0  0  0  0  0
   -8.8209   -3.4089    0.0000 C   0  0  0  0  0  0  0  0  0  0  0  0
   -9.8246   -4.5236    0.0000 C   0  0  0  0  0  0  0  0  0  0  0  0
  -11.2918   -4.2117    0.0000 F   0  0  0  0  0  0  0  0  0  0  0  0
   -9.3610   -5.9502    0.0000 C   0  0  0  0  0  0  0  0  0  0  0  0
   -7.8938   -6.2621    0.0000 C   0  0  0  0  0  0  0  0  0  0  0  0
   -7.4303   -7.6887    0.0000 Br  0  0  0  0  0  0  0  0  0  0  0  0
   -2.6401   -3.1891    0.0000 C   0  0  0  0  0  0  0  0  0  0  0  0
   -3.7548   -2.1855    0.0000 O   0  0  0  0  0  0  0  0  0  0  0  0
   -1.2135   -2.7256    0.0000 N   0  0  0  0  0  0  0  0  0  0  0  0
    0.0000   -3.6073    0.0000 C   0  0  0  0  0  0  0  0  0  0  0  0
    1.2135   -2.7256    0.0000 C   0  0  0  0  0  0  0  0  0  0  0  0
    0.7500   -1.2990    0.0000 C   0  0  0  0  0  0  0  0  0  0  0  0
    1.5000    0.0000    0.0000 C   0  0  0  0  0  0  0  0  0  0  0  0
    3.0000    0.0000    0.0000 C   0  0  0  0  0  0  0  0  0  0  0  0
    4.5000    0.0000    0.0000 N   0  0  0  0  0  0  0  0  0  0  0  0
    0.7500    1.2990    0.0000 C   0  0  0  0  0  0  0  0  0  0  0  0
   -0.7500    1.2990    0.0000 C   0  0  0  0  0  0  0  0  0  0  0  0
   -1.5000    0.0000    0.0000 C   0  0  0  0  0  0  0  0  0  0  0  0
   -0.7500   -1.2990    0.0000 C   0  0  0  0  0  0  0  0  0  0  0  0
  2  1  1  6
  2  3  1  0
  2  4  1  0
  4  5  1  0
  5  6  1  0
  6  7  2  0
  7  8  1  0
  8  9  2  0
  9 10  1  0
  9 11  1  0
 11 12  2  0
 12 13  1  0
  2 14  1  0
 14 15  2  0
 14 16  1  0
 16 17  1  0
 17 18  1  0
 18 19  1  0
 19 20  2  0
 20 21  1  0
 21 22  3  0
 20 23  1  0
 23 24  2  0
 24 25  1  0
 25 26  2  0
 12  6  1  0
 26 16  1  0
 26 19  1  0
M  END
>  <assay_chembl_id>  (438) 
CHEMBL3243251

>  <assay_description>  (438) 
Displacement of [3H]mibolerone from full length human AR expressed in COS cells after 3.5 hrs by liquid scintillation counting

>  <parent_molecule_chembl_id>  (438) 
CHEMBL3238289

>  <canonical_smiles>  (438) 
C[C@](O)(COc1ccc(F)cc1Br)C(=O)N1CCc2c(C#N)cccc21

>  <standard_type>  (438) 
IC50

>  <standard_relation>  (438) 
=

>  <standard_value>  (438) 
11.4

>  <standard_units>  (438) 
nM

>  <target_pref_name>  (438) 
Androgen Receptor

>  <target_chembl_id>  (438) 
CHEMBL1871

>  <target_organism>  (438) 
Homo sapiens

>  <pchembl_median>  (438) 
6.17

$$$$
CHEMBL3238290
     RDKit          2D

 26 28  0  0  0  0  0  0  0  0999 V2000
   -7.4303   -7.6887    0.0000 C   0  0  0  0  0  0  0  0  0  0  0  0
   -7.8938   -6.2621    0.0000 C   0  0  0  0  0  0  0  0  0  0  0  0
   -9.3610   -5.9502    0.0000 C   0  0  0  0  0  0  0  0  0  0  0  0
   -9.8246   -4.5236    0.0000 C   0  0  0  0  0  0  0  0  0  0  0  0
  -11.2918   -4.2117    0.0000 F   0  0  0  0  0  0  0  0  0  0  0  0
   -8.8209   -3.4089    0.0000 C   0  0  0  0  0  0  0  0  0  0  0  0
   -7.3536   -3.7208    0.0000 C   0  0  0  0  0  0  0  0  0  0  0  0
   -6.8901   -5.1474    0.0000 C   0  0  0  0  0  0  0  0  0  0  0  0
   -5.4229   -5.4592    0.0000 O   0  0  0  0  0  0  0  0  0  0  0  0
   -4.4192   -4.3445    0.0000 C   0  0  0  0  0  0  0  0  0  0  0  0
   -2.9520   -4.6564    0.0000 C   0  0  0  0  0  0  0  0  0  0  0  0
   -1.4848   -4.9682    0.0000 C   0  0  0  0  0  0  0  0  0  0  0  0
   -3.2638   -6.1236    0.0000 O   0  0  0  0  0  0  0  0  0  0  0  0
   -2.6401   -3.1891    0.0000 C   0  0  0  0  0  0  0  0  0  0  0  0
   -3.7548   -2.1855    0.0000 O   0  0  0  0  0  0  0  0  0  0  0  0
   -1.2135   -2.7256    0.0000 N   0  0  0  0  0  0  0  0  0  0  0  0
    0.0000   -3.6073    0.0000 C   0  0  0  0  0  0  0  0  0  0  0  0
    1.2135   -2.7256    0.0000 C   0  0  0  0  0  0  0  0  0  0  0  0
    0.7500   -1.2990    0.0000 C   0  0  0  0  0  0  0  0  0  0  0  0
    1.5000    0.0000    0.0000 C   0  0  0  0  0  0  0  0  0  0  0  0
    3.0000    0.0000    0.0000 C   0  0  0  0  0  0  0  0  0  0  0  0
    4.5000    0.0000    0.0000 N   0  0  0  0  0  0  0  0  0  0  0  0
    0.7500    1.2990    0.0000 C   0  0  0  0  0  0  0  0  0  0  0  0
   -0.7500    1.2990    0.0000 C   0  0  0  0  0  0  0  0  0  0  0  0
   -1.5000    0.0000    0.0000 C   0  0  0  0  0  0  0  0  0  0  0  0
   -0.7500   -1.2990    0.0000 C   0  0  0  0  0  0  0  0  0  0  0  0
  1  2  1  0
  2  3  2  0
  3  4  1  0
  4  5  1  0
  4  6  2  0
  6  7  1  0
  7  8  2  0
  8  9  1  0
  9 10  1  0
 10 11  1  0
 11 12  1  6
 11 13  1  0
 11 14  1  0
 14 15  2  0
 14 16  1  0
 16 17  1  0
 17 18  1  0
 18 19  1  0
 19 20  2  0
 20 21  1  0
 21 22  3  0
 20 23  1  0
 23 24  2  0
 24 25  1  0
 25 26  2  0
  8  2  1  0
 26 16  1  0
 26 19  1  0
M  END
>  <assay_chembl_id>  (439) 
CHEMBL3243251

>  <assay_description>  (439) 
Displacement of [3H]mibolerone from full length human AR expressed in COS cells after 3.5 hrs by liquid scintillation counting

>  <parent_molecule_chembl_id>  (439) 
CHEMBL3238290

>  <canonical_smiles>  (439) 
Cc1cc(F)ccc1OC[C@](C)(O)C(=O)N1CCc2c(C#N)cccc21

>  <standard_type>  (439) 
IC50

>  <standard_relation>  (439) 
=

>  <standard_value>  (439) 
10.7

>  <standard_units>  (439) 
nM

>  <target_pref_name>  (439) 
Androgen Receptor

>  <target_chembl_id>  (439) 
CHEMBL1871

>  <target_organism>  (439) 
Homo sapiens

>  <pchembl_median>  (439) 
6.52

$$$$
CHEMBL3238291
     RDKit          2D

 27 29  0  0  0  0  0  0  0  0999 V2000
   -1.4848   -4.9682    0.0000 C   0  0  0  0  0  0  0  0  0  0  0  0
   -2.9520   -4.6564    0.0000 C   0  0  0  0  0  0  0  0  0  0  0  0
   -3.2638   -6.1236    0.0000 O   0  0  0  0  0  0  0  0  0  0  0  0
   -4.4192   -4.3445    0.0000 C   0  0  0  0  0  0  0  0  0  0  0  0
   -5.4229   -5.4592    0.0000 O   0  0  0  0  0  0  0  0  0  0  0  0
   -6.8901   -5.1474    0.0000 C   0  0  0  0  0  0  0  0  0  0  0  0
   -7.3536   -3.7208    0.0000 C   0  0  0  0  0  0  0  0  0  0  0  0
   -8.8209   -3.4089    0.0000 C   0  0  0  0  0  0  0  0  0  0  0  0
   -9.8246   -4.5236    0.0000 C   0  0  0  0  0  0  0  0  0  0  0  0
  -11.2918   -4.2117    0.0000 C   0  0  0  0  0  0  0  0  0  0  0  0
  -12.7590   -3.8999    0.0000 N   0  0  0  0  0  0  0  0  0  0  0  0
   -9.3610   -5.9502    0.0000 C   0  0  0  0  0  0  0  0  0  0  0  0
   -7.8938   -6.2621    0.0000 C   0  0  0  0  0  0  0  0  0  0  0  0
   -7.4303   -7.6887    0.0000 Br  0  0  0  0  0  0  0  0  0  0  0  0
   -2.6401   -3.1891    0.0000 C   0  0  0  0  0  0  0  0  0  0  0  0
   -3.7548   -2.1855    0.0000 O   0  0  0  0  0  0  0  0  0  0  0  0
   -1.2135   -2.7256    0.0000 N   0  0  0  0  0  0  0  0  0  0  0  0
    0.0000   -3.6073    0.0000 C   0  0  0  0  0  0  0  0  0  0  0  0
    1.2135   -2.7256    0.0000 C   0  0  0  0  0  0  0  0  0  0  0  0
    0.7500   -1.2990    0.0000 C   0  0  0  0  0  0  0  0  0  0  0  0
    1.5000    0.0000    0.0000 C   0  0  0  0  0  0  0  0  0  0  0  0
    3.0000    0.0000    0.0000 C   0  0  0  0  0  0  0  0  0  0  0  0
    4.5000    0.0000    0.0000 N   0  0  0  0  0  0  0  0  0  0  0  0
    0.7500    1.2990    0.0000 C   0  0  0  0  0  0  0  0  0  0  0  0
   -0.7500    1.2990    0.0000 C   0  0  0  0  0  0  0  0  0  0  0  0
   -1.5000    0.0000    0.0000 C   0  0  0  0  0  0  0  0  0  0  0  0
   -0.7500   -1.2990    0.0000 C   0  0  0  0  0  0  0  0  0  0  0  0
  2  1  1  6
  2  3  1  0
  2  4  1  0
  4  5  1  0
  5  6  1  0
  6  7  2  0
  7  8  1  0
  8  9  2  0
  9 10  1  0
 10 11  3  0
  9 12  1  0
 12 13  2  0
 13 14  1  0
  2 15  1  0
 15 16  2  0
 15 17  1  0
 17 18  1  0
 18 19  1  0
 19 20  1  0
 20 21  2  0
 21 22  1  0
 22 23  3  0
 21 24  1  0
 24 25  2  0
 25 26  1  0
 26 27  2  0
 13  6  1  0
 27 17  1  0
 27 20  1  0
M  END
>  <assay_chembl_id>  (440) 
CHEMBL3243251

>  <assay_description>  (440) 
Displacement of [3H]mibolerone from full length human AR expressed in COS cells after 3.5 hrs by liquid scintillation counting

>  <parent_molecule_chembl_id>  (440) 
CHEMBL3238291

>  <canonical_smiles>  (440) 
C[C@](O)(COc1ccc(C#N)cc1Br)C(=O)N1CCc2c(C#N)cccc21

>  <standard_type>  (440) 
IC50

>  <standard_relation>  (440) 
=

>  <standard_value>  (440) 
4.8

>  <standard_units>  (440) 
nM

>  <target_pref_name>  (440) 
Androgen Receptor

>  <target_chembl_id>  (440) 
CHEMBL1871

>  <target_organism>  (440) 
Homo sapiens

>  <pchembl_median>  (440) 
6.3

$$$$
CHEMBL3238292
     RDKit          2D

 27 29  0  0  0  0  0  0  0  0999 V2000
   -1.4848   -4.9682    0.0000 C   0  0  0  0  0  0  0  0  0  0  0  0
   -2.9520   -4.6564    0.0000 C   0  0  0  0  0  0  0  0  0  0  0  0
   -3.2638   -6.1236    0.0000 O   0  0  0  0  0  0  0  0  0  0  0  0
   -4.4192   -4.3445    0.0000 C   0  0  0  0  0  0  0  0  0  0  0  0
   -5.4229   -5.4592    0.0000 O   0  0  0  0  0  0  0  0  0  0  0  0
   -6.8901   -5.1474    0.0000 C   0  0  0  0  0  0  0  0  0  0  0  0
   -7.3536   -3.7208    0.0000 C   0  0  0  0  0  0  0  0  0  0  0  0
   -8.8209   -3.4089    0.0000 C   0  0  0  0  0  0  0  0  0  0  0  0
   -9.8246   -4.5236    0.0000 C   0  0  0  0  0  0  0  0  0  0  0  0
  -11.2918   -4.2117    0.0000 C   0  0  0  0  0  0  0  0  0  0  0  0
  -12.7590   -3.8999    0.0000 N   0  0  0  0  0  0  0  0  0  0  0  0
   -9.3610   -5.9502    0.0000 C   0  0  0  0  0  0  0  0  0  0  0  0
   -7.8938   -6.2621    0.0000 C   0  0  0  0  0  0  0  0  0  0  0  0
   -7.4303   -7.6887    0.0000 F   0  0  0  0  0  0  0  0  0  0  0  0
   -2.6401   -3.1891    0.0000 C   0  0  0  0  0  0  0  0  0  0  0  0
   -3.7548   -2.1855    0.0000 O   0  0  0  0  0  0  0  0  0  0  0  0
   -1.2135   -2.7256    0.0000 N   0  0  0  0  0  0  0  0  0  0  0  0
    0.0000   -3.6073    0.0000 C   0  0  0  0  0  0  0  0  0  0  0  0
    1.2135   -2.7256    0.0000 C   0  0  0  0  0  0  0  0  0  0  0  0
    0.7500   -1.2990    0.0000 C   0  0  0  0  0  0  0  0  0  0  0  0
    1.5000    0.0000    0.0000 C   0  0  0  0  0  0  0  0  0  0  0  0
    3.0000    0.0000    0.0000 C   0  0  0  0  0  0  0  0  0  0  0  0
    4.5000    0.0000    0.0000 N   0  0  0  0  0  0  0  0  0  0  0  0
    0.7500    1.2990    0.0000 C   0  0  0  0  0  0  0  0  0  0  0  0
   -0.7500    1.2990    0.0000 C   0  0  0  0  0  0  0  0  0  0  0  0
   -1.5000    0.0000    0.0000 C   0  0  0  0  0  0  0  0  0  0  0  0
   -0.7500   -1.2990    0.0000 C   0  0  0  0  0  0  0  0  0  0  0  0
  2  1  1  6
  2  3  1  0
  2  4  1  0
  4  5  1  0
  5  6  1  0
  6  7  2  0
  7  8  1  0
  8  9  2  0
  9 10  1  0
 10 11  3  0
  9 12  1  0
 12 13  2  0
 13 14  1  0
  2 15  1  0
 15 16  2  0
 15 17  1  0
 17 18  1  0
 18 19  1  0
 19 20  1  0
 20 21  2  0
 21 22  1  0
 22 23  3  0
 21 24  1  0
 24 25  2  0
 25 26  1  0
 26 27  2  0
 13  6  1  0
 27 17  1  0
 27 20  1  0
M  END
>  <assay_chembl_id>  (441) 
CHEMBL3243251

>  <assay_description>  (441) 
Displacement of [3H]mibolerone from full length human AR expressed in COS cells after 3.5 hrs by liquid scintillation counting

>  <parent_molecule_chembl_id>  (441) 
CHEMBL3238292

>  <canonical_smiles>  (441) 
C[C@](O)(COc1ccc(C#N)cc1F)C(=O)N1CCc2c(C#N)cccc21

>  <standard_type>  (441) 
IC50

>  <standard_relation>  (441) 
=

>  <standard_value>  (441) 
3.2

>  <standard_units>  (441) 
nM

>  <target_pref_name>  (441) 
Androgen Receptor

>  <target_chembl_id>  (441) 
CHEMBL1871

>  <target_organism>  (441) 
Homo sapiens

>  <pchembl_median>  (441) 
6.67

$$$$
CHEMBL3238293
     RDKit          2D

 28 30  0  0  0  0  0  0  0  0999 V2000
   -8.4340   -8.8034    0.0000 C   0  0  0  0  0  0  0  0  0  0  0  0
   -7.4303   -7.6887    0.0000 O   0  0  0  0  0  0  0  0  0  0  0  0
   -7.8938   -6.2621    0.0000 C   0  0  0  0  0  0  0  0  0  0  0  0
   -9.3610   -5.9502    0.0000 C   0  0  0  0  0  0  0  0  0  0  0  0
   -9.8246   -4.5236    0.0000 C   0  0  0  0  0  0  0  0  0  0  0  0
  -11.2918   -4.2117    0.0000 C   0  0  0  0  0  0  0  0  0  0  0  0
  -12.7590   -3.8999    0.0000 N   0  0  0  0  0  0  0  0  0  0  0  0
   -8.8209   -3.4089    0.0000 C   0  0  0  0  0  0  0  0  0  0  0  0
   -7.3536   -3.7208    0.0000 C   0  0  0  0  0  0  0  0  0  0  0  0
   -6.8901   -5.1474    0.0000 C   0  0  0  0  0  0  0  0  0  0  0  0
   -5.4229   -5.4592    0.0000 O   0  0  0  0  0  0  0  0  0  0  0  0
   -4.4192   -4.3445    0.0000 C   0  0  0  0  0  0  0  0  0  0  0  0
   -2.9520   -4.6564    0.0000 C   0  0  0  0  0  0  0  0  0  0  0  0
   -1.4848   -4.9682    0.0000 C   0  0  0  0  0  0  0  0  0  0  0  0
   -3.2638   -6.1236    0.0000 O   0  0  0  0  0  0  0  0  0  0  0  0
   -2.6401   -3.1891    0.0000 C   0  0  0  0  0  0  0  0  0  0  0  0
   -3.7548   -2.1855    0.0000 O   0  0  0  0  0  0  0  0  0  0  0  0
   -1.2135   -2.7256    0.0000 N   0  0  0  0  0  0  0  0  0  0  0  0
    0.0000   -3.6073    0.0000 C   0  0  0  0  0  0  0  0  0  0  0  0
    1.2135   -2.7256    0.0000 C   0  0  0  0  0  0  0  0  0  0  0  0
    0.7500   -1.2990    0.0000 C   0  0  0  0  0  0  0  0  0  0  0  0
    1.5000    0.0000    0.0000 C   0  0  0  0  0  0  0  0  0  0  0  0
    3.0000    0.0000    0.0000 C   0  0  0  0  0  0  0  0  0  0  0  0
    4.5000    0.0000    0.0000 N   0  0  0  0  0  0  0  0  0  0  0  0
    0.7500    1.2990    0.0000 C   0  0  0  0  0  0  0  0  0  0  0  0
   -0.7500    1.2990    0.0000 C   0  0  0  0  0  0  0  0  0  0  0  0
   -1.5000    0.0000    0.0000 C   0  0  0  0  0  0  0  0  0  0  0  0
   -0.7500   -1.2990    0.0000 C   0  0  0  0  0  0  0  0  0  0  0  0
  1  2  1  0
  2  3  1  0
  3  4  2  0
  4  5  1  0
  5  6  1  0
  6  7  3  0
  5  8  2  0
  8  9  1  0
  9 10  2  0
 10 11  1  0
 11 12  1  0
 12 13  1  0
 13 14  1  6
 13 15  1  0
 13 16  1  0
 16 17  2  0
 16 18  1  0
 18 19  1  0
 19 20  1  0
 20 21  1  0
 21 22  2  0
 22 23  1  0
 23 24  3  0
 22 25  1  0
 25 26  2  0
 26 27  1  0
 27 28  2  0
 10  3  1  0
 28 18  1  0
 28 21  1  0
M  END
>  <assay_chembl_id>  (442) 
CHEMBL3243251

>  <assay_description>  (442) 
Displacement of [3H]mibolerone from full length human AR expressed in COS cells after 3.5 hrs by liquid scintillation counting

>  <parent_molecule_chembl_id>  (442) 
CHEMBL3238293

>  <canonical_smiles>  (442) 
COc1cc(C#N)ccc1OC[C@](C)(O)C(=O)N1CCc2c(C#N)cccc21

>  <standard_type>  (442) 
IC50

>  <standard_relation>  (442) 
=

>  <standard_value>  (442) 
16.1

>  <standard_units>  (442) 
nM

>  <target_pref_name>  (442) 
Androgen Receptor

>  <target_chembl_id>  (442) 
CHEMBL1871

>  <target_organism>  (442) 
Homo sapiens

>  <pchembl_median>  (442) 
7.3

$$$$
CHEMBL3238294
     RDKit          2D

 27 29  0  0  0  0  0  0  0  0999 V2000
   -8.4340   -8.8034    0.0000 C   0  0  0  0  0  0  0  0  0  0  0  0
   -7.4303   -7.6887    0.0000 O   0  0  0  0  0  0  0  0  0  0  0  0
   -7.8938   -6.2621    0.0000 C   0  0  0  0  0  0  0  0  0  0  0  0
   -9.3610   -5.9502    0.0000 C   0  0  0  0  0  0  0  0  0  0  0  0
   -9.8246   -4.5236    0.0000 C   0  0  0  0  0  0  0  0  0  0  0  0
  -11.2918   -4.2117    0.0000 Cl  0  0  0  0  0  0  0  0  0  0  0  0
   -8.8209   -3.4089    0.0000 C   0  0  0  0  0  0  0  0  0  0  0  0
   -7.3536   -3.7208    0.0000 C   0  0  0  0  0  0  0  0  0  0  0  0
   -6.8901   -5.1474    0.0000 C   0  0  0  0  0  0  0  0  0  0  0  0
   -5.4229   -5.4592    0.0000 O   0  0  0  0  0  0  0  0  0  0  0  0
   -4.4192   -4.3445    0.0000 C   0  0  0  0  0  0  0  0  0  0  0  0
   -2.9520   -4.6564    0.0000 C   0  0  0  0  0  0  0  0  0  0  0  0
   -1.4848   -4.9682    0.0000 C   0  0  0  0  0  0  0  0  0  0  0  0
   -3.2638   -6.1236    0.0000 O   0  0  0  0  0  0  0  0  0  0  0  0
   -2.6401   -3.1891    0.0000 C   0  0  0  0  0  0  0  0  0  0  0  0
   -3.7548   -2.1855    0.0000 O   0  0  0  0  0  0  0  0  0  0  0  0
   -1.2135   -2.7256    0.0000 N   0  0  0  0  0  0  0  0  0  0  0  0
    0.0000   -3.6073    0.0000 C   0  0  0  0  0  0  0  0  0  0  0  0
    1.2135   -2.7256    0.0000 C   0  0  0  0  0  0  0  0  0  0  0  0
    0.7500   -1.2990    0.0000 C   0  0  0  0  0  0  0  0  0  0  0  0
    1.5000    0.0000    0.0000 C   0  0  0  0  0  0  0  0  0  0  0  0
    3.0000    0.0000    0.0000 C   0  0  0  0  0  0  0  0  0  0  0  0
    4.5000    0.0000    0.0000 N   0  0  0  0  0  0  0  0  0  0  0  0
    0.7500    1.2990    0.0000 C   0  0  0  0  0  0  0  0  0  0  0  0
   -0.7500    1.2990    0.0000 C   0  0  0  0  0  0  0  0  0  0  0  0
   -1.5000    0.0000    0.0000 C   0  0  0  0  0  0  0  0  0  0  0  0
   -0.7500   -1.2990    0.0000 C   0  0  0  0  0  0  0  0  0  0  0  0
  1  2  1  0
  2  3  1  0
  3  4  2  0
  4  5  1  0
  5  6  1  0
  5  7  2  0
  7  8  1  0
  8  9  2  0
  9 10  1  0
 10 11  1  0
 11 12  1  0
 12 13  1  6
 12 14  1  0
 12 15  1  0
 15 16  2  0
 15 17  1  0
 17 18  1  0
 18 19  1  0
 19 20  1  0
 20 21  2  0
 21 22  1  0
 22 23  3  0
 21 24  1  0
 24 25  2  0
 25 26  1  0
 26 27  2  0
  9  3  1  0
 27 17  1  0
 27 20  1  0
M  END
>  <assay_chembl_id>  (443) 
CHEMBL3243251

>  <assay_description>  (443) 
Displacement of [3H]mibolerone from full length human AR expressed in COS cells after 3.5 hrs by liquid scintillation counting

>  <parent_molecule_chembl_id>  (443) 
CHEMBL3238294

>  <canonical_smiles>  (443) 
COc1cc(Cl)ccc1OC[C@](C)(O)C(=O)N1CCc2c(C#N)cccc21

>  <standard_type>  (443) 
IC50

>  <standard_relation>  (443) 
=

>  <standard_value>  (443) 
365.8

>  <standard_units>  (443) 
nM

>  <target_pref_name>  (443) 
Androgen Receptor

>  <target_chembl_id>  (443) 
CHEMBL1871

>  <target_organism>  (443) 
Homo sapiens

>  <pchembl_median>  (443) 
7.2

$$$$
CHEMBL3238295
     RDKit          2D

 27 29  0  0  0  0  0  0  0  0999 V2000
  -11.7553   -2.7852    0.0000 C   0  0  0  0  0  0  0  0  0  0  0  0
  -11.2918   -4.2117    0.0000 O   0  0  0  0  0  0  0  0  0  0  0  0
   -9.8246   -4.5236    0.0000 C   0  0  0  0  0  0  0  0  0  0  0  0
   -8.8209   -3.4089    0.0000 C   0  0  0  0  0  0  0  0  0  0  0  0
   -7.3536   -3.7208    0.0000 C   0  0  0  0  0  0  0  0  0  0  0  0
   -6.8901   -5.1474    0.0000 C   0  0  0  0  0  0  0  0  0  0  0  0
   -5.4229   -5.4592    0.0000 O   0  0  0  0  0  0  0  0  0  0  0  0
   -4.4192   -4.3445    0.0000 C   0  0  0  0  0  0  0  0  0  0  0  0
   -2.9520   -4.6564    0.0000 C   0  0  0  0  0  0  0  0  0  0  0  0
   -1.4848   -4.9682    0.0000 C   0  0  0  0  0  0  0  0  0  0  0  0
   -3.2638   -6.1236    0.0000 O   0  0  0  0  0  0  0  0  0  0  0  0
   -2.6401   -3.1891    0.0000 C   0  0  0  0  0  0  0  0  0  0  0  0
   -3.7548   -2.1855    0.0000 O   0  0  0  0  0  0  0  0  0  0  0  0
   -1.2135   -2.7256    0.0000 N   0  0  0  0  0  0  0  0  0  0  0  0
    0.0000   -3.6073    0.0000 C   0  0  0  0  0  0  0  0  0  0  0  0
    1.2135   -2.7256    0.0000 C   0  0  0  0  0  0  0  0  0  0  0  0
    0.7500   -1.2990    0.0000 C   0  0  0  0  0  0  0  0  0  0  0  0
    1.5000    0.0000    0.0000 C   0  0  0  0  0  0  0  0  0  0  0  0
    3.0000    0.0000    0.0000 C   0  0  0  0  0  0  0  0  0  0  0  0
    4.5000    0.0000    0.0000 N   0  0  0  0  0  0  0  0  0  0  0  0
    0.7500    1.2990    0.0000 C   0  0  0  0  0  0  0  0  0  0  0  0
   -0.7500    1.2990    0.0000 C   0  0  0  0  0  0  0  0  0  0  0  0
   -1.5000    0.0000    0.0000 C   0  0  0  0  0  0  0  0  0  0  0  0
   -0.7500   -1.2990    0.0000 C   0  0  0  0  0  0  0  0  0  0  0  0
   -7.8938   -6.2621    0.0000 C   0  0  0  0  0  0  0  0  0  0  0  0
   -7.4303   -7.6887    0.0000 F   0  0  0  0  0  0  0  0  0  0  0  0
   -9.3610   -5.9502    0.0000 C   0  0  0  0  0  0  0  0  0  0  0  0
  1  2  1  0
  2  3  1  0
  3  4  2  0
  4  5  1  0
  5  6  2  0
  6  7  1  0
  7  8  1  0
  8  9  1  0
  9 10  1  6
  9 11  1  0
  9 12  1  0
 12 13  2  0
 12 14  1  0
 14 15  1  0
 15 16  1  0
 16 17  1  0
 17 18  2  0
 18 19  1  0
 19 20  3  0
 18 21  1  0
 21 22  2  0
 22 23  1  0
 23 24  2  0
  6 25  1  0
 25 26  1  0
 25 27  2  0
 27  3  1  0
 24 14  1  0
 24 17  1  0
M  END
>  <assay_chembl_id>  (444) 
CHEMBL3243251

>  <assay_description>  (444) 
Displacement of [3H]mibolerone from full length human AR expressed in COS cells after 3.5 hrs by liquid scintillation counting

>  <parent_molecule_chembl_id>  (444) 
CHEMBL3238295

>  <canonical_smiles>  (444) 
COc1ccc(OC[C@](C)(O)C(=O)N2CCc3c(C#N)cccc32)c(F)c1

>  <standard_type>  (444) 
IC50

>  <standard_relation>  (444) 
=

>  <standard_value>  (444) 
426.7

>  <standard_units>  (444) 
nM

>  <target_pref_name>  (444) 
Androgen Receptor

>  <target_chembl_id>  (444) 
CHEMBL1871

>  <target_organism>  (444) 
Homo sapiens

>  <pchembl_median>  (444) 
6.96

$$$$
CHEMBL3233069
     RDKit          2D

 27 29  0  0  0  0  0  0  0  0999 V2000
  -11.7553   -2.7852    0.0000 C   0  0  0  0  0  0  0  0  0  0  0  0
  -11.2918   -4.2117    0.0000 O   0  0  0  0  0  0  0  0  0  0  0  0
   -9.8246   -4.5236    0.0000 C   0  0  0  0  0  0  0  0  0  0  0  0
   -8.8209   -3.4089    0.0000 C   0  0  0  0  0  0  0  0  0  0  0  0
   -7.3536   -3.7208    0.0000 C   0  0  0  0  0  0  0  0  0  0  0  0
   -6.8901   -5.1474    0.0000 C   0  0  0  0  0  0  0  0  0  0  0  0
   -5.4229   -5.4592    0.0000 O   0  0  0  0  0  0  0  0  0  0  0  0
   -4.4192   -4.3445    0.0000 C   0  0  0  0  0  0  0  0  0  0  0  0
   -2.9520   -4.6564    0.0000 C   0  0  0  0  0  0  0  0  0  0  0  0
   -1.4848   -4.9682    0.0000 C   0  0  0  0  0  0  0  0  0  0  0  0
   -3.2638   -6.1236    0.0000 O   0  0  0  0  0  0  0  0  0  0  0  0
   -2.6401   -3.1891    0.0000 C   0  0  0  0  0  0  0  0  0  0  0  0
   -3.7548   -2.1855    0.0000 O   0  0  0  0  0  0  0  0  0  0  0  0
   -1.2135   -2.7256    0.0000 N   0  0  0  0  0  0  0  0  0  0  0  0
    0.0000   -3.6073    0.0000 C   0  0  0  0  0  0  0  0  0  0  0  0
    1.2135   -2.7256    0.0000 C   0  0  0  0  0  0  0  0  0  0  0  0
    0.7500   -1.2990    0.0000 C   0  0  0  0  0  0  0  0  0  0  0  0
    1.5000    0.0000    0.0000 C   0  0  0  0  0  0  0  0  0  0  0  0
    3.0000    0.0000    0.0000 C   0  0  0  0  0  0  0  0  0  0  0  0
    4.5000    0.0000    0.0000 N   0  0  0  0  0  0  0  0  0  0  0  0
    0.7500    1.2990    0.0000 C   0  0  0  0  0  0  0  0  0  0  0  0
   -0.7500    1.2990    0.0000 C   0  0  0  0  0  0  0  0  0  0  0  0
   -1.5000    0.0000    0.0000 C   0  0  0  0  0  0  0  0  0  0  0  0
   -0.7500   -1.2990    0.0000 C   0  0  0  0  0  0  0  0  0  0  0  0
   -7.8938   -6.2621    0.0000 C   0  0  0  0  0  0  0  0  0  0  0  0
   -7.4303   -7.6887    0.0000 Cl  0  0  0  0  0  0  0  0  0  0  0  0
   -9.3610   -5.9502    0.0000 C   0  0  0  0  0  0  0  0  0  0  0  0
  1  2  1  0
  2  3  1  0
  3  4  2  0
  4  5  1  0
  5  6  2  0
  6  7  1  0
  7  8  1  0
  8  9  1  0
  9 10  1  6
  9 11  1  0
  9 12  1  0
 12 13  2  0
 12 14  1  0
 14 15  1  0
 15 16  1  0
 16 17  1  0
 17 18  2  0
 18 19  1  0
 19 20  3  0
 18 21  1  0
 21 22  2  0
 22 23  1  0
 23 24  2  0
  6 25  1  0
 25 26  1  0
 25 27  2  0
 27  3  1  0
 24 14  1  0
 24 17  1  0
M  END
>  <assay_chembl_id>  (445) 
CHEMBL3243251

>  <assay_description>  (445) 
Displacement of [3H]mibolerone from full length human AR expressed in COS cells after 3.5 hrs by liquid scintillation counting

>  <parent_molecule_chembl_id>  (445) 
CHEMBL3233069

>  <canonical_smiles>  (445) 
COc1ccc(OC[C@](C)(O)C(=O)N2CCc3c(C#N)cccc32)c(Cl)c1

>  <standard_type>  (445) 
IC50

>  <standard_relation>  (445) 
=

>  <standard_value>  (445) 
3.5

>  <standard_units>  (445) 
nM

>  <target_pref_name>  (445) 
Androgen Receptor

>  <target_chembl_id>  (445) 
CHEMBL1871

>  <target_organism>  (445) 
Homo sapiens

>  <pchembl_median>  (445) 
7.75

$$$$
CHEMBL3233070
     RDKit          2D

 26 28  0  0  0  0  0  0  0  0999 V2000
   -1.4848   -4.9682    0.0000 C   0  0  0  0  0  0  0  0  0  0  0  0
   -2.9520   -4.6564    0.0000 C   0  0  0  0  0  0  0  0  0  0  0  0
   -3.2638   -6.1236    0.0000 O   0  0  0  0  0  0  0  0  0  0  0  0
   -4.4192   -4.3445    0.0000 C   0  0  0  0  0  0  0  0  0  0  0  0
   -5.4229   -5.4592    0.0000 O   0  0  0  0  0  0  0  0  0  0  0  0
   -6.8901   -5.1474    0.0000 C   0  0  0  0  0  0  0  0  0  0  0  0
   -7.3536   -3.7208    0.0000 C   0  0  0  0  0  0  0  0  0  0  0  0
   -8.8209   -3.4089    0.0000 C   0  0  0  0  0  0  0  0  0  0  0  0
   -9.8246   -4.5236    0.0000 C   0  0  0  0  0  0  0  0  0  0  0  0
  -11.2918   -4.2117    0.0000 Cl  0  0  0  0  0  0  0  0  0  0  0  0
   -9.3610   -5.9502    0.0000 C   0  0  0  0  0  0  0  0  0  0  0  0
   -7.8938   -6.2621    0.0000 C   0  0  0  0  0  0  0  0  0  0  0  0
   -7.4303   -7.6887    0.0000 F   0  0  0  0  0  0  0  0  0  0  0  0
   -2.6401   -3.1891    0.0000 C   0  0  0  0  0  0  0  0  0  0  0  0
   -3.7548   -2.1855    0.0000 O   0  0  0  0  0  0  0  0  0  0  0  0
   -1.2135   -2.7256    0.0000 N   0  0  0  0  0  0  0  0  0  0  0  0
    0.0000   -3.6073    0.0000 C   0  0  0  0  0  0  0  0  0  0  0  0
    1.2135   -2.7256    0.0000 C   0  0  0  0  0  0  0  0  0  0  0  0
    0.7500   -1.2990    0.0000 C   0  0  0  0  0  0  0  0  0  0  0  0
    1.5000    0.0000    0.0000 C   0  0  0  0  0  0  0  0  0  0  0  0
    3.0000    0.0000    0.0000 C   0  0  0  0  0  0  0  0  0  0  0  0
    4.5000    0.0000    0.0000 N   0  0  0  0  0  0  0  0  0  0  0  0
    0.7500    1.2990    0.0000 C   0  0  0  0  0  0  0  0  0  0  0  0
   -0.7500    1.2990    0.0000 C   0  0  0  0  0  0  0  0  0  0  0  0
   -1.5000    0.0000    0.0000 C   0  0  0  0  0  0  0  0  0  0  0  0
   -0.7500   -1.2990    0.0000 C   0  0  0  0  0  0  0  0  0  0  0  0
  2  1  1  6
  2  3  1  0
  2  4  1  0
  4  5  1  0
  5  6  1  0
  6  7  2  0
  7  8  1  0
  8  9  2  0
  9 10  1  0
  9 11  1  0
 11 12  2  0
 12 13  1  0
  2 14  1  0
 14 15  2  0
 14 16  1  0
 16 17  1  0
 17 18  1  0
 18 19  1  0
 19 20  2  0
 20 21  1  0
 21 22  3  0
 20 23  1  0
 23 24  2  0
 24 25  1  0
 25 26  2  0
 12  6  1  0
 26 16  1  0
 26 19  1  0
M  END
>  <assay_chembl_id>  (446) 
CHEMBL3243251

>  <assay_description>  (446) 
Displacement of [3H]mibolerone from full length human AR expressed in COS cells after 3.5 hrs by liquid scintillation counting

>  <parent_molecule_chembl_id>  (446) 
CHEMBL3233070

>  <canonical_smiles>  (446) 
C[C@](O)(COc1ccc(Cl)cc1F)C(=O)N1CCc2c(C#N)cccc21

>  <standard_type>  (446) 
IC50

>  <standard_relation>  (446) 
=

>  <standard_value>  (446) 
5.0

>  <standard_units>  (446) 
nM

>  <target_pref_name>  (446) 
Androgen Receptor

>  <target_chembl_id>  (446) 
CHEMBL1871

>  <target_organism>  (446) 
Homo sapiens

>  <pchembl_median>  (446) 
7.77

$$$$
CHEMBL3233071
     RDKit          2D

 26 28  0  0  0  0  0  0  0  0999 V2000
   -1.4848   -4.9682    0.0000 C   0  0  0  0  0  0  0  0  0  0  0  0
   -2.9520   -4.6564    0.0000 C   0  0  0  0  0  0  0  0  0  0  0  0
   -3.2638   -6.1236    0.0000 O   0  0  0  0  0  0  0  0  0  0  0  0
   -4.4192   -4.3445    0.0000 C   0  0  0  0  0  0  0  0  0  0  0  0
   -5.4229   -5.4592    0.0000 O   0  0  0  0  0  0  0  0  0  0  0  0
   -6.8901   -5.1474    0.0000 C   0  0  0  0  0  0  0  0  0  0  0  0
   -7.3536   -3.7208    0.0000 C   0  0  0  0  0  0  0  0  0  0  0  0
   -8.8209   -3.4089    0.0000 C   0  0  0  0  0  0  0  0  0  0  0  0
   -9.8246   -4.5236    0.0000 C   0  0  0  0  0  0  0  0  0  0  0  0
  -11.2918   -4.2117    0.0000 Cl  0  0  0  0  0  0  0  0  0  0  0  0
   -9.3610   -5.9502    0.0000 C   0  0  0  0  0  0  0  0  0  0  0  0
   -7.8938   -6.2621    0.0000 C   0  0  0  0  0  0  0  0  0  0  0  0
   -7.4303   -7.6887    0.0000 Cl  0  0  0  0  0  0  0  0  0  0  0  0
   -2.6401   -3.1891    0.0000 C   0  0  0  0  0  0  0  0  0  0  0  0
   -3.7548   -2.1855    0.0000 O   0  0  0  0  0  0  0  0  0  0  0  0
   -1.2135   -2.7256    0.0000 N   0  0  0  0  0  0  0  0  0  0  0  0
    0.0000   -3.6073    0.0000 C   0  0  0  0  0  0  0  0  0  0  0  0
    1.2135   -2.7256    0.0000 C   0  0  0  0  0  0  0  0  0  0  0  0
    0.7500   -1.2990    0.0000 C   0  0  0  0  0  0  0  0  0  0  0  0
    1.5000    0.0000    0.0000 C   0  0  0  0  0  0  0  0  0  0  0  0
    3.0000    0.0000    0.0000 C   0  0  0  0  0  0  0  0  0  0  0  0
    4.5000    0.0000    0.0000 N   0  0  0  0  0  0  0  0  0  0  0  0
    0.7500    1.2990    0.0000 C   0  0  0  0  0  0  0  0  0  0  0  0
   -0.7500    1.2990    0.0000 C   0  0  0  0  0  0  0  0  0  0  0  0
   -1.5000    0.0000    0.0000 C   0  0  0  0  0  0  0  0  0  0  0  0
   -0.7500   -1.2990    0.0000 C   0  0  0  0  0  0  0  0  0  0  0  0
  2  1  1  6
  2  3  1  0
  2  4  1  0
  4  5  1  0
  5  6  1  0
  6  7  2  0
  7  8  1  0
  8  9  2  0
  9 10  1  0
  9 11  1  0
 11 12  2  0
 12 13  1  0
  2 14  1  0
 14 15  2  0
 14 16  1  0
 16 17  1  0
 17 18  1  0
 18 19  1  0
 19 20  2  0
 20 21  1  0
 21 22  3  0
 20 23  1  0
 23 24  2  0
 24 25  1  0
 25 26  2  0
 12  6  1  0
 26 16  1  0
 26 19  1  0
M  END
>  <assay_chembl_id>  (447) 
CHEMBL3243251

>  <assay_description>  (447) 
Displacement of [3H]mibolerone from full length human AR expressed in COS cells after 3.5 hrs by liquid scintillation counting

>  <parent_molecule_chembl_id>  (447) 
CHEMBL3233071

>  <canonical_smiles>  (447) 
C[C@](O)(COc1ccc(Cl)cc1Cl)C(=O)N1CCc2c(C#N)cccc21

>  <standard_type>  (447) 
IC50

>  <standard_relation>  (447) 
=

>  <standard_value>  (447) 
9.1

>  <standard_units>  (447) 
nM

>  <target_pref_name>  (447) 
Androgen Receptor

>  <target_chembl_id>  (447) 
CHEMBL1871

>  <target_organism>  (447) 
Homo sapiens

>  <pchembl_median>  (447) 
7.38

$$$$
CHEMBL3233072
     RDKit          2D

 26 28  0  0  0  0  0  0  0  0999 V2000
   -1.4848   -4.9682    0.0000 C   0  0  0  0  0  0  0  0  0  0  0  0
   -2.9520   -4.6564    0.0000 C   0  0  0  0  0  0  0  0  0  0  0  0
   -3.2638   -6.1236    0.0000 O   0  0  0  0  0  0  0  0  0  0  0  0
   -4.4192   -4.3445    0.0000 C   0  0  0  0  0  0  0  0  0  0  0  0
   -5.4229   -5.4592    0.0000 O   0  0  0  0  0  0  0  0  0  0  0  0
   -6.8901   -5.1474    0.0000 C   0  0  0  0  0  0  0  0  0  0  0  0
   -7.3536   -3.7208    0.0000 C   0  0  0  0  0  0  0  0  0  0  0  0
   -8.8209   -3.4089    0.0000 C   0  0  0  0  0  0  0  0  0  0  0  0
   -9.8246   -4.5236    0.0000 C   0  0  0  0  0  0  0  0  0  0  0  0
  -11.2918   -4.2117    0.0000 Br  0  0  0  0  0  0  0  0  0  0  0  0
   -9.3610   -5.9502    0.0000 C   0  0  0  0  0  0  0  0  0  0  0  0
   -7.8938   -6.2621    0.0000 C   0  0  0  0  0  0  0  0  0  0  0  0
   -7.4303   -7.6887    0.0000 F   0  0  0  0  0  0  0  0  0  0  0  0
   -2.6401   -3.1891    0.0000 C   0  0  0  0  0  0  0  0  0  0  0  0
   -3.7548   -2.1855    0.0000 O   0  0  0  0  0  0  0  0  0  0  0  0
   -1.2135   -2.7256    0.0000 N   0  0  0  0  0  0  0  0  0  0  0  0
    0.0000   -3.6073    0.0000 C   0  0  0  0  0  0  0  0  0  0  0  0
    1.2135   -2.7256    0.0000 C   0  0  0  0  0  0  0  0  0  0  0  0
    0.7500   -1.2990    0.0000 C   0  0  0  0  0  0  0  0  0  0  0  0
    1.5000    0.0000    0.0000 C   0  0  0  0  0  0  0  0  0  0  0  0
    3.0000    0.0000    0.0000 C   0  0  0  0  0  0  0  0  0  0  0  0
    4.5000    0.0000    0.0000 N   0  0  0  0  0  0  0  0  0  0  0  0
    0.7500    1.2990    0.0000 C   0  0  0  0  0  0  0  0  0  0  0  0
   -0.7500    1.2990    0.0000 C   0  0  0  0  0  0  0  0  0  0  0  0
   -1.5000    0.0000    0.0000 C   0  0  0  0  0  0  0  0  0  0  0  0
   -0.7500   -1.2990    0.0000 C   0  0  0  0  0  0  0  0  0  0  0  0
  2  1  1  6
  2  3  1  0
  2  4  1  0
  4  5  1  0
  5  6  1  0
  6  7  2  0
  7  8  1  0
  8  9  2  0
  9 10  1  0
  9 11  1  0
 11 12  2  0
 12 13  1  0
  2 14  1  0
 14 15  2  0
 14 16  1  0
 16 17  1  0
 17 18  1  0
 18 19  1  0
 19 20  2  0
 20 21  1  0
 21 22  3  0
 20 23  1  0
 23 24  2  0
 24 25  1  0
 25 26  2  0
 12  6  1  0
 26 16  1  0
 26 19  1  0
M  END
>  <assay_chembl_id>  (448) 
CHEMBL3243251

>  <assay_description>  (448) 
Displacement of [3H]mibolerone from full length human AR expressed in COS cells after 3.5 hrs by liquid scintillation counting

>  <parent_molecule_chembl_id>  (448) 
CHEMBL3233072

>  <canonical_smiles>  (448) 
C[C@](O)(COc1ccc(Br)cc1F)C(=O)N1CCc2c(C#N)cccc21

>  <standard_type>  (448) 
IC50

>  <standard_relation>  (448) 
=

>  <standard_value>  (448) 
36.8

>  <standard_units>  (448) 
nM

>  <target_pref_name>  (448) 
Androgen Receptor

>  <target_chembl_id>  (448) 
CHEMBL1871

>  <target_organism>  (448) 
Homo sapiens

>  <pchembl_median>  (448) 
7.66

$$$$
CHEMBL3262343
     RDKit          2D

 20 21  0  0  0  0  0  0  0  0999 V2000
    5.2841   -3.4619    0.0000 C   0  0  0  0  0  0  0  0  0  0  0  0
    4.6740   -4.8322    0.0000 C   0  0  0  0  0  0  0  0  0  0  0  0
    4.0639   -6.2025    0.0000 C   0  0  0  0  0  0  0  0  0  0  0  0
    6.0443   -5.4423    0.0000 O   0  0  0  0  0  0  0  0  0  0  0  0
    3.3037   -4.2221    0.0000 C   0  0  0  0  0  0  0  0  0  0  0  0
    2.9918   -2.7549    0.0000 C   0  0  0  0  0  0  0  0  0  0  0  0
    1.5000   -2.5981    0.0000 N   0  0  0  0  0  0  0  0  0  0  0  0
    0.7500   -1.2990    0.0000 C   0  0  0  0  0  0  0  0  0  0  0  0
    1.5000    0.0000    0.0000 C   0  0  0  0  0  0  0  0  0  0  0  0
    0.7500    1.2990    0.0000 C   0  0  0  0  0  0  0  0  0  0  0  0
   -0.7500    1.2990    0.0000 C   0  0  0  0  0  0  0  0  0  0  0  0
   -1.5000    2.5981    0.0000 Cl  0  0  0  0  0  0  0  0  0  0  0  0
   -1.5000    0.0000    0.0000 C   0  0  0  0  0  0  0  0  0  0  0  0
   -3.0000    0.0000    0.0000 C   0  0  0  0  0  0  0  0  0  0  0  0
   -4.5000    0.0000    0.0000 F   0  0  0  0  0  0  0  0  0  0  0  0
   -3.0000    1.5000    0.0000 F   0  0  0  0  0  0  0  0  0  0  0  0
   -3.0000   -1.5000    0.0000 F   0  0  0  0  0  0  0  0  0  0  0  0
   -0.7500   -1.2990    0.0000 C   0  0  0  0  0  0  0  0  0  0  0  0
    0.8899   -3.9684    0.0000 N   0  0  0  0  0  0  0  0  0  0  0  0
    2.0046   -4.9721    0.0000 N   0  0  0  0  0  0  0  0  0  0  0  0
  1  2  1  0
  2  3  1  0
  2  4  1  0
  2  5  1  0
  5  6  2  0
  6  7  1  0
  7  8  1  0
  8  9  2  0
  9 10  1  0
 10 11  2  0
 11 12  1  0
 11 13  1  0
 13 14  1  0
 14 15  1  0
 14 16  1  0
 14 17  1  0
 13 18  2  0
  7 19  1  0
 19 20  2  0
 20  5  1  0
 18  8  1  0
M  END
>  <assay_chembl_id>  (449) 
CHEMBL3266739

>  <assay_description>  (449) 
Antagonist activity at androgen receptor in human LNCAP cells assessed as inhibition of androgen-stimulated cell growth measured every 3 days

>  <parent_molecule_chembl_id>  (449) 
CHEMBL3262343

>  <canonical_smiles>  (449) 
CC(C)(O)c1cn(-c2ccc(Cl)c(C(F)(F)F)c2)nn1

>  <standard_type>  (449) 
IC50

>  <standard_relation>  (449) 
=

>  <standard_value>  (449) 
49000.0

>  <standard_units>  (449) 
nM

>  <target_pref_name>  (449) 
Androgen Receptor

>  <target_chembl_id>  (449) 
CHEMBL1871

>  <target_organism>  (449) 
Homo sapiens

>  <pchembl_median>  (449) 
7.57

$$$$
CHEMBL3262347
     RDKit          2D

 22 23  0  0  0  0  0  0  0  0999 V2000
    5.2841   -3.4619    0.0000 C   0  0  0  0  0  0  0  0  0  0  0  0
    4.6740   -4.8322    0.0000 C   0  0  0  0  0  0  0  0  0  0  0  0
    4.0639   -6.2025    0.0000 C   0  0  0  0  0  0  0  0  0  0  0  0
    6.0443   -5.4423    0.0000 O   0  0  0  0  0  0  0  0  0  0  0  0
    3.3037   -4.2221    0.0000 C   0  0  0  0  0  0  0  0  0  0  0  0
    2.9918   -2.7549    0.0000 C   0  0  0  0  0  0  0  0  0  0  0  0
    1.5000   -2.5981    0.0000 N   0  0  0  0  0  0  0  0  0  0  0  0
    0.7500   -1.2990    0.0000 C   0  0  0  0  0  0  0  0  0  0  0  0
    1.5000    0.0000    0.0000 C   0  0  0  0  0  0  0  0  0  0  0  0
    0.7500    1.2990    0.0000 C   0  0  0  0  0  0  0  0  0  0  0  0
   -0.7500    1.2990    0.0000 C   0  0  0  0  0  0  0  0  0  0  0  0
   -1.5000    2.5981    0.0000 N   0  0  0  0  0  4  0  0  0  0  0  0
   -3.0000    2.5981    0.0000 O   0  0  0  0  0  0  0  0  0  0  0  0
   -0.7500    3.8971    0.0000 O   0  0  0  0  0  1  0  0  0  0  0  0
   -1.5000    0.0000    0.0000 C   0  0  0  0  0  0  0  0  0  0  0  0
   -3.0000    0.0000    0.0000 C   0  0  0  0  0  0  0  0  0  0  0  0
   -4.5000    0.0000    0.0000 F   0  0  0  0  0  0  0  0  0  0  0  0
   -3.0000    1.5000    0.0000 F   0  0  0  0  0  0  0  0  0  0  0  0
   -3.0000   -1.5000    0.0000 F   0  0  0  0  0  0  0  0  0  0  0  0
   -0.7500   -1.2990    0.0000 C   0  0  0  0  0  0  0  0  0  0  0  0
    0.8899   -3.9684    0.0000 N   0  0  0  0  0  0  0  0  0  0  0  0
    2.0046   -4.9721    0.0000 N   0  0  0  0  0  0  0  0  0  0  0  0
  1  2  1  0
  2  3  1  0
  2  4  1  0
  2  5  1  0
  5  6  2  0
  6  7  1  0
  7  8  1  0
  8  9  2  0
  9 10  1  0
 10 11  2  0
 11 12  1  0
 12 13  2  0
 12 14  1  0
 11 15  1  0
 15 16  1  0
 16 17  1  0
 16 18  1  0
 16 19  1  0
 15 20  2  0
  7 21  1  0
 21 22  2  0
 22  5  1  0
 20  8  1  0
M  CHG  2  12   1  14  -1
M  END
>  <assay_chembl_id>  (450) 
CHEMBL3266739

>  <assay_description>  (450) 
Antagonist activity at androgen receptor in human LNCAP cells assessed as inhibition of androgen-stimulated cell growth measured every 3 days

>  <parent_molecule_chembl_id>  (450) 
CHEMBL3262347

>  <canonical_smiles>  (450) 
CC(C)(O)c1cn(-c2ccc([N+](=O)[O-])c(C(F)(F)F)c2)nn1

>  <standard_type>  (450) 
IC50

>  <standard_relation>  (450) 
=

>  <standard_value>  (450) 
45000.0

>  <standard_units>  (450) 
nM

>  <target_pref_name>  (450) 
Androgen Receptor

>  <target_chembl_id>  (450) 
CHEMBL1871

>  <target_organism>  (450) 
Homo sapiens

>  <pchembl_median>  (450) 
7.72

$$$$
CHEMBL3262348
     RDKit          2D

 23 24  0  0  0  0  0  0  0  0999 V2000
    5.2841   -3.4619    0.0000 C   0  0  0  0  0  0  0  0  0  0  0  0
    4.6740   -4.8322    0.0000 C   0  0  0  0  0  0  0  0  0  0  0  0
    4.0639   -6.2025    0.0000 C   0  0  0  0  0  0  0  0  0  0  0  0
    6.0443   -5.4423    0.0000 O   0  0  0  0  0  0  0  0  0  0  0  0
    3.3037   -4.2221    0.0000 C   0  0  0  0  0  0  0  0  0  0  0  0
    2.9918   -2.7549    0.0000 C   0  0  0  0  0  0  0  0  0  0  0  0
    1.5000   -2.5981    0.0000 N   0  0  0  0  0  0  0  0  0  0  0  0
    0.7500   -1.2990    0.0000 C   0  0  0  0  0  0  0  0  0  0  0  0
    1.5000    0.0000    0.0000 C   0  0  0  0  0  0  0  0  0  0  0  0
    0.7500    1.2990    0.0000 C   0  0  0  0  0  0  0  0  0  0  0  0
    1.5000    2.5981    0.0000 C   0  0  0  0  0  0  0  0  0  0  0  0
    2.2500    3.8971    0.0000 F   0  0  0  0  0  0  0  0  0  0  0  0
    2.7990    1.8481    0.0000 F   0  0  0  0  0  0  0  0  0  0  0  0
    0.2010    3.3481    0.0000 F   0  0  0  0  0  0  0  0  0  0  0  0
   -0.7500    1.2990    0.0000 C   0  0  0  0  0  0  0  0  0  0  0  0
   -1.5000    0.0000    0.0000 C   0  0  0  0  0  0  0  0  0  0  0  0
   -3.0000    0.0000    0.0000 C   0  0  0  0  0  0  0  0  0  0  0  0
   -4.5000    0.0000    0.0000 F   0  0  0  0  0  0  0  0  0  0  0  0
   -3.0000    1.5000    0.0000 F   0  0  0  0  0  0  0  0  0  0  0  0
   -3.0000   -1.5000    0.0000 F   0  0  0  0  0  0  0  0  0  0  0  0
   -0.7500   -1.2990    0.0000 C   0  0  0  0  0  0  0  0  0  0  0  0
    0.8899   -3.9684    0.0000 N   0  0  0  0  0  0  0  0  0  0  0  0
    2.0046   -4.9721    0.0000 N   0  0  0  0  0  0  0  0  0  0  0  0
  1  2  1  0
  2  3  1  0
  2  4  1  0
  2  5  1  0
  5  6  2  0
  6  7  1  0
  7  8  1  0
  8  9  2  0
  9 10  1  0
 10 11  1  0
 11 12  1  0
 11 13  1  0
 11 14  1  0
 10 15  2  0
 15 16  1  0
 16 17  1  0
 17 18  1  0
 17 19  1  0
 17 20  1  0
 16 21  2  0
  7 22  1  0
 22 23  2  0
 23  5  1  0
 21  8  1  0
M  END
>  <assay_chembl_id>  (451) 
CHEMBL3266739

>  <assay_description>  (451) 
Antagonist activity at androgen receptor in human LNCAP cells assessed as inhibition of androgen-stimulated cell growth measured every 3 days

>  <parent_molecule_chembl_id>  (451) 
CHEMBL3262348

>  <canonical_smiles>  (451) 
CC(C)(O)c1cn(-c2cc(C(F)(F)F)cc(C(F)(F)F)c2)nn1

>  <standard_type>  (451) 
IC50

>  <standard_relation>  (451) 
=

>  <standard_value>  (451) 
40000.0

>  <standard_units>  (451) 
nM

>  <target_pref_name>  (451) 
Androgen Receptor

>  <target_chembl_id>  (451) 
CHEMBL1871

>  <target_organism>  (451) 
Homo sapiens

>  <pchembl_median>  (451) 
8.39

$$$$
CHEMBL1572280
     RDKit          2D

 58 64  0  0  0  0  0  0  0  0999 V2000
   -1.8478  -11.6600    0.0000 C   0  0  0  0  0  0  0  0  0  0  0  0
   -2.0046  -10.1682    0.0000 C   0  0  0  0  0  0  0  0  0  0  0  0
   -0.8899   -9.1645    0.0000 C   0  0  0  0  0  0  0  0  0  0  0  0
   -1.5000   -7.7942    0.0000 C   0  0  0  0  0  0  0  0  0  0  0  0
   -0.7500   -6.4952    0.0000 C   0  0  0  0  0  0  0  0  0  0  0  0
   -1.5000   -5.1962    0.0000 C   0  0  0  0  0  0  0  0  0  0  0  0
   -0.7500   -3.8971    0.0000 C   0  0  0  0  0  0  0  0  0  0  0  0
    0.7500   -3.8971    0.0000 C   0  0  0  0  0  0  0  0  0  0  0  0
    1.5000   -2.5981    0.0000 C   0  0  0  0  0  0  0  0  0  0  0  0
    0.7500   -1.2990    0.0000 C   0  0  0  0  0  0  0  0  0  0  0  0
    1.5000    0.0000    0.0000 C   0  0  0  0  0  0  0  0  0  0  0  0
    0.7500    1.2990    0.0000 C   0  0  0  0  0  0  0  0  0  0  0  0
    1.5000    2.5981    0.0000 N   0  0  0  0  0  0  0  0  0  0  0  0
    3.0000    2.5981    0.0000 C   0  0  0  0  0  0  0  0  0  0  0  0
    0.7500    3.8971    0.0000 C   0  0  0  0  0  0  0  0  0  0  0  0
   -0.7500    1.2990    0.0000 C   0  0  0  0  0  0  0  0  0  0  0  0
   -1.5000    0.0000    0.0000 C   0  0  0  0  0  0  0  0  0  0  0  0
   -0.7500   -1.2990    0.0000 C   0  0  0  0  0  0  0  0  0  0  0  0
   -1.5000   -2.5981    0.0000 N   0  0  0  0  0  4  0  0  0  0  0  0
   -3.0000   -2.5981    0.0000 C   0  0  0  0  0  0  0  0  0  0  0  0
   -2.9918   -7.9510    0.0000 C   0  0  0  0  0  0  0  0  0  0  0  0
   -3.9955   -6.8363    0.0000 C   0  0  0  0  0  0  0  0  0  0  0  0
   -3.3037   -9.4182    0.0000 N   0  0  0  0  0  0  0  0  0  0  0  0
   -4.6740  -10.0283    0.0000 C   0  0  0  0  0  0  0  0  0  0  0  0
   -5.8875   -9.1467    0.0000 C   0  0  0  0  0  0  0  0  0  0  0  0
   -7.2578   -9.7568    0.0000 C   0  0  0  0  0  0  0  0  0  0  0  0
   -7.4146  -11.2486    0.0000 C   0  0  0  0  0  0  0  0  0  0  0  0
   -6.2011  -12.1302    0.0000 C   0  0  0  0  0  0  0  0  0  0  0  0
   -4.8308  -11.5201    0.0000 C   0  0  0  0  0  0  0  0  0  0  0  0
   15.2500   -5.1962    0.0000 O   0  0  0  0  0  0  0  0  0  0  0  0
   13.7500   -5.1962    0.0000 C   0  0  0  0  0  0  0  0  0  0  0  0
   13.0000   -6.4952    0.0000 O   0  0  0  0  0  1  0  0  0  0  0  0
   13.0000   -3.8971    0.0000 C   0  0  0  0  0  0  0  0  0  0  0  0
   13.7500   -2.5981    0.0000 C   0  0  0  0  0  0  0  0  0  0  0  0
   13.0000   -1.2990    0.0000 C   0  0  0  0  0  0  0  0  0  0  0  0
   13.7500    0.0000    0.0000 C   0  0  0  0  0  0  0  0  0  0  0  0
   13.0000    1.2990    0.0000 C   0  0  0  0  0  0  0  0  0  0  0  0
   11.5000    1.2990    0.0000 C   0  0  0  0  0  0  0  0  0  0  0  0
   10.7500    0.0000    0.0000 C   0  0  0  0  0  0  0  0  0  0  0  0
   11.5000   -1.2990    0.0000 C   0  0  0  0  0  0  0  0  0  0  0  0
   10.7500   -2.5981    0.0000 C   0  0  0  0  0  0  0  0  0  0  0  0
    9.2500   -2.5981    0.0000 C   0  0  0  0  0  0  0  0  0  0  0  0
    8.5000   -3.8971    0.0000 C   0  0  0  0  0  0  0  0  0  0  0  0
    9.2500   -5.1962    0.0000 C   0  0  0  0  0  0  0  0  0  0  0  0
   10.2268   -5.3161    0.0000 O   0  0  0  0  0  0  0  0  0  0  0  0
    8.5000   -6.4952    0.0000 C   0  0  0  0  0  0  0  0  0  0  0  0
    9.2500   -7.7942    0.0000 C   0  0  0  0  0  0  0  0  0  0  0  0
   10.7500   -7.7942    0.0000 O   0  0  0  0  0  0  0  0  0  0  0  0
    8.5000   -9.0933    0.0000 O   0  0  0  0  0  0  0  0  0  0  0  0
    7.0000   -6.4952    0.0000 C   0  0  0  0  0  0  0  0  0  0  0  0
    6.2500   -5.1962    0.0000 C   0  0  0  0  0  0  0  0  0  0  0  0
    4.7500   -5.1962    0.0000 C   0  0  0  0  0  0  0  0  0  0  0  0
    4.0000   -3.8971    0.0000 C   0  0  0  0  0  0  0  0  0  0  0  0
    4.7500   -2.5981    0.0000 C   0  0  0  0  0  0  0  0  0  0  0  0
    6.2500   -2.5981    0.0000 C   0  0  0  0  0  0  0  0  0  0  0  0
    7.0000   -3.8971    0.0000 C   0  0  0  0  0  0  0  0  0  0  0  0
   11.5000   -3.8971    0.0000 C   0  0  0  0  0  0  0  0  0  0  0  0
   11.1155   -4.8030    0.0000 O   0  0  0  0  0  0  0  0  0  0  0  0
  1  2  1  0
  2  3  2  0
  3  4  1  0
  4  5  1  0
  5  6  2  0
  6  7  1  0
  7  8  2  0
  8  9  1  0
  9 10  2  0
 10 11  1  0
 11 12  2  0
 12 13  1  0
 13 14  1  0
 13 15  1  0
 12 16  1  0
 16 17  2  0
 17 18  1  0
 18 19  2  0
 19 20  1  0
  4 21  2  0
 21 22  1  0
 21 23  1  0
 23 24  1  0
 24 25  2  0
 25 26  1  0
 26 27  2  0
 27 28  1  0
 28 29  2  0
 30 31  2  0
 31 32  1  0
 31 33  1  0
 33 34  2  0
 34 35  1  0
 35 36  2  0
 36 37  1  0
 37 38  2  0
 38 39  1  0
 39 40  2  0
 40 41  1  0
 41 42  1  0
 42 43  1  0
 43 44  2  0
 44 45  1  0
 44 46  1  0
 46 47  1  0
 47 48  2  0
 47 49  1  0
 46 50  2  0
 50 51  1  0
 51 52  2  0
 52 53  1  0
 53 54  2  0
 54 55  1  0
 55 56  2  0
 41 57  2  0
 57 58  1  0
 23  2  1  0
 29 24  1  0
 57 33  1  0
 19  7  1  0
 40 35  1  0
 56 43  1  0
 18 10  1  0
 56 51  1  0
M  CHG  2  19   1  32  -1
M  END
>  <assay_chembl_id>  (452) 
CHEMBL3374324

>  <assay_description>  (452) 
Inhibition of androgen receptor in human LNCaP cells assessed as inhibition of prostate-specific antigen secretion into media after 3 days

>  <parent_molecule_chembl_id>  (452) 
CHEMBL1201303

>  <canonical_smiles>  (452) 
Cc1cc(/C=C/c2ccc3cc(N(C)C)ccc3[n+]2C)c(C)n1-c1ccccc1.O=C([O-])c1cc2ccccc2c(Cc2c(O)c(C(=O)O)cc3ccccc23)c1O

>  <standard_type>  (452) 
IC50

>  <standard_relation>  (452) 
=

>  <standard_value>  (452) 
400.0

>  <standard_units>  (452) 
nM

>  <target_pref_name>  (452) 
Androgen Receptor

>  <target_chembl_id>  (452) 
CHEMBL1871

>  <target_organism>  (452) 
Homo sapiens

>  <pchembl_median>  (452) 
6.24

$$$$
CHEMBL3323502
     RDKit          2D

 18 20  0  0  0  0  0  0  0  0999 V2000
    7.2276   -7.7552    0.0000 C   0  0  0  0  0  0  0  0  0  0  0  0
    6.4776   -6.4562    0.0000 C   0  0  0  0  0  0  0  0  0  0  0  0
    7.0877   -5.0859    0.0000 N   0  0  0  0  0  0  0  0  0  0  0  0
    5.9730   -4.0822    0.0000 C   0  0  0  0  0  0  0  0  0  0  0  0
    4.6740   -4.8322    0.0000 N   0  0  0  0  0  0  0  0  0  0  0  0
    3.3037   -4.2221    0.0000 C   0  0  0  0  0  0  0  0  0  0  0  0
    2.0046   -4.9721    0.0000 C   0  0  0  0  0  0  0  0  0  0  0  0
    0.8899   -3.9684    0.0000 S   0  0  0  0  0  0  0  0  0  0  0  0
    1.5000   -2.5981    0.0000 C   0  0  0  0  0  0  0  0  0  0  0  0
    0.7500   -1.2990    0.0000 N   0  0  0  0  0  0  0  0  0  0  0  0
    1.5000    0.0000    0.0000 C   0  0  0  0  0  0  0  0  0  0  0  0
    0.7500    1.2990    0.0000 C   0  0  0  0  0  0  0  0  0  0  0  0
   -0.7500    1.2990    0.0000 O   0  0  0  0  0  0  0  0  0  0  0  0
   -1.5000    0.0000    0.0000 C   0  0  0  0  0  0  0  0  0  0  0  0
   -0.7500   -1.2990    0.0000 C   0  0  0  0  0  0  0  0  0  0  0  0
    2.9918   -2.7549    0.0000 N   0  0  0  0  0  0  0  0  0  0  0  0
    4.9858   -6.2994    0.0000 C   0  0  0  0  0  0  0  0  0  0  0  0
    3.9821   -7.4141    0.0000 C   0  0  0  0  0  0  0  0  0  0  0  0
  1  2  1  0
  2  3  1  0
  3  4  2  0
  4  5  1  0
  5  6  1  0
  6  7  2  0
  7  8  1  0
  8  9  1  0
  9 10  1  0
 10 11  1  0
 11 12  1  0
 12 13  1  0
 13 14  1  0
 14 15  1  0
  9 16  2  0
  5 17  1  0
 17 18  1  0
 17  2  2  0
 16  6  1  0
 15 10  1  0
M  END
>  <assay_chembl_id>  (453) 
CHEMBL3374324

>  <assay_description>  (453) 
Inhibition of androgen receptor in human LNCaP cells assessed as inhibition of prostate-specific antigen secretion into media after 3 days

>  <parent_molecule_chembl_id>  (453) 
CHEMBL3323502

>  <canonical_smiles>  (453) 
Cc1ncn(-c2csc(N3CCOCC3)n2)c1C

>  <standard_type>  (453) 
IC50

>  <standard_relation>  (453) 
=

>  <standard_value>  (453) 
2420.0

>  <standard_units>  (453) 
nM

>  <target_pref_name>  (453) 
Androgen Receptor

>  <target_chembl_id>  (453) 
CHEMBL1871

>  <target_organism>  (453) 
Homo sapiens

>  <pchembl_median>  (453) 
5.805

$$$$
CHEMBL3323498
     RDKit          2D

 17 19  0  0  0  0  0  0  0  0999 V2000
    8.5549   -4.7740    0.0000 Br  0  0  0  0  0  0  0  0  0  0  0  0
    7.0877   -5.0859    0.0000 C   0  0  0  0  0  0  0  0  0  0  0  0
    5.9730   -4.0822    0.0000 C   0  0  0  0  0  0  0  0  0  0  0  0
    4.6740   -4.8322    0.0000 N   0  0  0  0  0  0  0  0  0  0  0  0
    3.3037   -4.2221    0.0000 C   0  0  0  0  0  0  0  0  0  0  0  0
    2.0046   -4.9721    0.0000 C   0  0  0  0  0  0  0  0  0  0  0  0
    0.8899   -3.9684    0.0000 S   0  0  0  0  0  0  0  0  0  0  0  0
    1.5000   -2.5981    0.0000 C   0  0  0  0  0  0  0  0  0  0  0  0
    0.7500   -1.2990    0.0000 N   0  0  0  0  0  0  0  0  0  0  0  0
    1.5000    0.0000    0.0000 C   0  0  0  0  0  0  0  0  0  0  0  0
    0.7500    1.2990    0.0000 C   0  0  0  0  0  0  0  0  0  0  0  0
   -0.7500    1.2990    0.0000 O   0  0  0  0  0  0  0  0  0  0  0  0
   -1.5000    0.0000    0.0000 C   0  0  0  0  0  0  0  0  0  0  0  0
   -0.7500   -1.2990    0.0000 C   0  0  0  0  0  0  0  0  0  0  0  0
    2.9918   -2.7549    0.0000 N   0  0  0  0  0  0  0  0  0  0  0  0
    4.9858   -6.2994    0.0000 C   0  0  0  0  0  0  0  0  0  0  0  0
    6.4776   -6.4562    0.0000 N   0  0  0  0  0  0  0  0  0  0  0  0
  1  2  1  0
  2  3  2  0
  3  4  1  0
  4  5  1  0
  5  6  2  0
  6  7  1  0
  7  8  1  0
  8  9  1  0
  9 10  1  0
 10 11  1  0
 11 12  1  0
 12 13  1  0
 13 14  1  0
  8 15  2  0
  4 16  1  0
 16 17  2  0
 17  2  1  0
 15  5  1  0
 14  9  1  0
M  END
>  <assay_chembl_id>  (454) 
CHEMBL3374324

>  <assay_description>  (454) 
Inhibition of androgen receptor in human LNCaP cells assessed as inhibition of prostate-specific antigen secretion into media after 3 days

>  <parent_molecule_chembl_id>  (454) 
CHEMBL3323498

>  <canonical_smiles>  (454) 
Brc1cn(-c2csc(N3CCOCC3)n2)cn1

>  <standard_type>  (454) 
IC50

>  <standard_relation>  (454) 
=

>  <standard_value>  (454) 
1740.0

>  <standard_units>  (454) 
nM

>  <target_pref_name>  (454) 
Androgen Receptor

>  <target_chembl_id>  (454) 
CHEMBL1871

>  <target_organism>  (454) 
Homo sapiens

>  <pchembl_median>  (454) 
6.38

$$$$
CHEMBL3323497
     RDKit          2D

 18 20  0  0  0  0  0  0  0  0999 V2000
    7.2276   -7.7552    0.0000 Cl  0  0  0  0  0  0  0  0  0  0  0  0
    6.4776   -6.4562    0.0000 C   0  0  0  0  0  0  0  0  0  0  0  0
    7.0877   -5.0859    0.0000 N   0  0  0  0  0  0  0  0  0  0  0  0
    5.9730   -4.0822    0.0000 C   0  0  0  0  0  0  0  0  0  0  0  0
    4.6740   -4.8322    0.0000 N   0  0  0  0  0  0  0  0  0  0  0  0
    3.3037   -4.2221    0.0000 C   0  0  0  0  0  0  0  0  0  0  0  0
    2.0046   -4.9721    0.0000 C   0  0  0  0  0  0  0  0  0  0  0  0
    0.8899   -3.9684    0.0000 S   0  0  0  0  0  0  0  0  0  0  0  0
    1.5000   -2.5981    0.0000 C   0  0  0  0  0  0  0  0  0  0  0  0
    0.7500   -1.2990    0.0000 N   0  0  0  0  0  0  0  0  0  0  0  0
    1.5000    0.0000    0.0000 C   0  0  0  0  0  0  0  0  0  0  0  0
    0.7500    1.2990    0.0000 C   0  0  0  0  0  0  0  0  0  0  0  0
   -0.7500    1.2990    0.0000 O   0  0  0  0  0  0  0  0  0  0  0  0
   -1.5000    0.0000    0.0000 C   0  0  0  0  0  0  0  0  0  0  0  0
   -0.7500   -1.2990    0.0000 C   0  0  0  0  0  0  0  0  0  0  0  0
    2.9918   -2.7549    0.0000 N   0  0  0  0  0  0  0  0  0  0  0  0
    4.9858   -6.2994    0.0000 C   0  0  0  0  0  0  0  0  0  0  0  0
    3.9821   -7.4141    0.0000 I   0  0  0  0  0  0  0  0  0  0  0  0
  1  2  1  0
  2  3  1  0
  3  4  2  0
  4  5  1  0
  5  6  1  0
  6  7  2  0
  7  8  1  0
  8  9  1  0
  9 10  1  0
 10 11  1  0
 11 12  1  0
 12 13  1  0
 13 14  1  0
 14 15  1  0
  9 16  2  0
  5 17  1  0
 17 18  1  0
 17  2  2  0
 16  6  1  0
 15 10  1  0
M  END
>  <assay_chembl_id>  (455) 
CHEMBL3374324

>  <assay_description>  (455) 
Inhibition of androgen receptor in human LNCaP cells assessed as inhibition of prostate-specific antigen secretion into media after 3 days

>  <parent_molecule_chembl_id>  (455) 
CHEMBL3323497

>  <canonical_smiles>  (455) 
Clc1ncn(-c2csc(N3CCOCC3)n2)c1I

>  <standard_type>  (455) 
IC50

>  <standard_relation>  (455) 
=

>  <standard_value>  (455) 
4020.0

>  <standard_units>  (455) 
nM

>  <target_pref_name>  (455) 
Androgen Receptor

>  <target_chembl_id>  (455) 
CHEMBL1871

>  <target_organism>  (455) 
Homo sapiens

>  <pchembl_median>  (455) 
5.42

$$$$
CHEMBL3323495
     RDKit          2D

 18 20  0  0  0  0  0  0  0  0999 V2000
    7.2276   -7.7552    0.0000 I   0  0  0  0  0  0  0  0  0  0  0  0
    6.4776   -6.4562    0.0000 C   0  0  0  0  0  0  0  0  0  0  0  0
    7.0877   -5.0859    0.0000 N   0  0  0  0  0  0  0  0  0  0  0  0
    5.9730   -4.0822    0.0000 C   0  0  0  0  0  0  0  0  0  0  0  0
    4.6740   -4.8322    0.0000 N   0  0  0  0  0  0  0  0  0  0  0  0
    3.3037   -4.2221    0.0000 C   0  0  0  0  0  0  0  0  0  0  0  0
    2.0046   -4.9721    0.0000 C   0  0  0  0  0  0  0  0  0  0  0  0
    0.8899   -3.9684    0.0000 S   0  0  0  0  0  0  0  0  0  0  0  0
    1.5000   -2.5981    0.0000 C   0  0  0  0  0  0  0  0  0  0  0  0
    0.7500   -1.2990    0.0000 N   0  0  0  0  0  0  0  0  0  0  0  0
    1.5000    0.0000    0.0000 C   0  0  0  0  0  0  0  0  0  0  0  0
    0.7500    1.2990    0.0000 C   0  0  0  0  0  0  0  0  0  0  0  0
   -0.7500    1.2990    0.0000 O   0  0  0  0  0  0  0  0  0  0  0  0
   -1.5000    0.0000    0.0000 C   0  0  0  0  0  0  0  0  0  0  0  0
   -0.7500   -1.2990    0.0000 C   0  0  0  0  0  0  0  0  0  0  0  0
    2.9918   -2.7549    0.0000 N   0  0  0  0  0  0  0  0  0  0  0  0
    4.9858   -6.2994    0.0000 C   0  0  0  0  0  0  0  0  0  0  0  0
    3.9821   -7.4141    0.0000 I   0  0  0  0  0  0  0  0  0  0  0  0
  1  2  1  0
  2  3  1  0
  3  4  2  0
  4  5  1  0
  5  6  1  0
  6  7  2  0
  7  8  1  0
  8  9  1  0
  9 10  1  0
 10 11  1  0
 11 12  1  0
 12 13  1  0
 13 14  1  0
 14 15  1  0
  9 16  2  0
  5 17  1  0
 17 18  1  0
 17  2  2  0
 16  6  1  0
 15 10  1  0
M  END
>  <assay_chembl_id>  (456) 
CHEMBL3374324

>  <assay_description>  (456) 
Inhibition of androgen receptor in human LNCaP cells assessed as inhibition of prostate-specific antigen secretion into media after 3 days

>  <parent_molecule_chembl_id>  (456) 
CHEMBL3323495

>  <canonical_smiles>  (456) 
Ic1ncn(-c2csc(N3CCOCC3)n2)c1I

>  <standard_type>  (456) 
IC50

>  <standard_relation>  (456) 
=

>  <standard_value>  (456) 
1810.0

>  <standard_units>  (456) 
nM

>  <target_pref_name>  (456) 
Androgen Receptor

>  <target_chembl_id>  (456) 
CHEMBL1871

>  <target_organism>  (456) 
Homo sapiens

>  <pchembl_median>  (456) 
5.3

$$$$
CHEMBL3323494
     RDKit          2D

 18 20  0  0  0  0  0  0  0  0999 V2000
    3.9821   -7.4141    0.0000 Cl  0  0  0  0  0  0  0  0  0  0  0  0
    4.9858   -6.2994    0.0000 C   0  0  0  0  0  0  0  0  0  0  0  0
    6.4776   -6.4562    0.0000 C   0  0  0  0  0  0  0  0  0  0  0  0
    7.2276   -7.7552    0.0000 Br  0  0  0  0  0  0  0  0  0  0  0  0
    7.0877   -5.0859    0.0000 N   0  0  0  0  0  0  0  0  0  0  0  0
    5.9730   -4.0822    0.0000 C   0  0  0  0  0  0  0  0  0  0  0  0
    4.6740   -4.8322    0.0000 N   0  0  0  0  0  0  0  0  0  0  0  0
    3.3037   -4.2221    0.0000 C   0  0  0  0  0  0  0  0  0  0  0  0
    2.0046   -4.9721    0.0000 C   0  0  0  0  0  0  0  0  0  0  0  0
    0.8899   -3.9684    0.0000 S   0  0  0  0  0  0  0  0  0  0  0  0
    1.5000   -2.5981    0.0000 C   0  0  0  0  0  0  0  0  0  0  0  0
    0.7500   -1.2990    0.0000 N   0  0  0  0  0  0  0  0  0  0  0  0
    1.5000    0.0000    0.0000 C   0  0  0  0  0  0  0  0  0  0  0  0
    0.7500    1.2990    0.0000 C   0  0  0  0  0  0  0  0  0  0  0  0
   -0.7500    1.2990    0.0000 O   0  0  0  0  0  0  0  0  0  0  0  0
   -1.5000    0.0000    0.0000 C   0  0  0  0  0  0  0  0  0  0  0  0
   -0.7500   -1.2990    0.0000 C   0  0  0  0  0  0  0  0  0  0  0  0
    2.9918   -2.7549    0.0000 N   0  0  0  0  0  0  0  0  0  0  0  0
  1  2  1  0
  2  3  2  0
  3  4  1  0
  3  5  1  0
  5  6  2  0
  6  7  1  0
  7  8  1  0
  8  9  2  0
  9 10  1  0
 10 11  1  0
 11 12  1  0
 12 13  1  0
 13 14  1  0
 14 15  1  0
 15 16  1  0
 16 17  1  0
 11 18  2  0
  7  2  1  0
 18  8  1  0
 17 12  1  0
M  END
>  <assay_chembl_id>  (457) 
CHEMBL3374324

>  <assay_description>  (457) 
Inhibition of androgen receptor in human LNCaP cells assessed as inhibition of prostate-specific antigen secretion into media after 3 days

>  <parent_molecule_chembl_id>  (457) 
CHEMBL3323494

>  <canonical_smiles>  (457) 
Clc1c(Br)ncn1-c1csc(N2CCOCC2)n1

>  <standard_type>  (457) 
IC50

>  <standard_relation>  (457) 
=

>  <standard_value>  (457) 
1280.0

>  <standard_units>  (457) 
nM

>  <target_pref_name>  (457) 
Androgen Receptor

>  <target_chembl_id>  (457) 
CHEMBL1871

>  <target_organism>  (457) 
Homo sapiens

>  <pchembl_median>  (457) 
5.29

$$$$
CHEMBL3323493
     RDKit          2D

 19 21  0  0  0  0  0  0  0  0999 V2000
    3.0000    0.0000    0.0000 O   0  0  0  0  0  0  0  0  0  0  0  0
    1.5000    0.0000    0.0000 C   0  0  0  0  0  0  0  0  0  0  0  0
    0.7500   -1.2990    0.0000 C   0  0  0  0  0  0  0  0  0  0  0  0
   -0.7500   -1.2990    0.0000 C   0  0  0  0  0  0  0  0  0  0  0  0
   -1.5000   -2.5981    0.0000 F   0  0  0  0  0  0  0  0  0  0  0  0
   -1.5000    0.0000    0.0000 C   0  0  0  0  0  0  0  0  0  0  0  0
   -0.7500    1.2990    0.0000 C   0  0  0  0  0  0  0  0  0  0  0  0
    0.7500    1.2990    0.0000 C   0  0  0  0  0  0  0  0  0  0  0  0
    1.5000    2.5981    0.0000 C   0  0  0  0  0  0  0  0  0  0  0  0
    0.8899    3.9684    0.0000 C   0  0  0  0  0  0  0  0  0  0  0  0
    2.0046    4.9721    0.0000 S   0  0  0  0  0  0  0  0  0  0  0  0
    3.3037    4.2221    0.0000 C   0  0  0  0  0  0  0  0  0  0  0  0
    4.6740    4.8322    0.0000 N   0  0  0  0  0  0  0  0  0  0  0  0
    5.8875    3.9505    0.0000 C   0  0  0  0  0  0  0  0  0  0  0  0
    7.2578    4.5606    0.0000 C   0  0  0  0  0  0  0  0  0  0  0  0
    7.4146    6.0524    0.0000 O   0  0  0  0  0  0  0  0  0  0  0  0
    6.2011    6.9341    0.0000 C   0  0  0  0  0  0  0  0  0  0  0  0
    4.8308    6.3240    0.0000 C   0  0  0  0  0  0  0  0  0  0  0  0
    2.9918    2.7549    0.0000 N   0  0  0  0  0  0  0  0  0  0  0  0
  1  2  1  0
  2  3  2  0
  3  4  1  0
  4  5  1  0
  4  6  2  0
  6  7  1  0
  7  8  2  0
  8  9  1  0
  9 10  2  0
 10 11  1  0
 11 12  1  0
 12 13  1  0
 13 14  1  0
 14 15  1  0
 15 16  1  0
 16 17  1  0
 17 18  1  0
 12 19  2  0
  8  2  1  0
 19  9  1  0
 18 13  1  0
M  END
>  <assay_chembl_id>  (458) 
CHEMBL3374324

>  <assay_description>  (458) 
Inhibition of androgen receptor in human LNCaP cells assessed as inhibition of prostate-specific antigen secretion into media after 3 days

>  <parent_molecule_chembl_id>  (458) 
CHEMBL3323493

>  <canonical_smiles>  (458) 
Oc1cc(F)ccc1-c1csc(N2CCOCC2)n1

>  <standard_type>  (458) 
IC50

>  <standard_relation>  (458) 
=

>  <standard_value>  (458) 
810.0

>  <standard_units>  (458) 
nM

>  <target_pref_name>  (458) 
Androgen Receptor

>  <target_chembl_id>  (458) 
CHEMBL1871

>  <target_organism>  (458) 
Homo sapiens

>  <pchembl_median>  (458) 
7.7

$$$$
CHEMBL3323492
     RDKit          2D

 17 19  0  0  0  0  0  0  0  0999 V2000
    8.5549   -4.7740    0.0000 Cl  0  0  0  0  0  0  0  0  0  0  0  0
    7.0877   -5.0859    0.0000 C   0  0  0  0  0  0  0  0  0  0  0  0
    5.9730   -4.0822    0.0000 C   0  0  0  0  0  0  0  0  0  0  0  0
    4.6740   -4.8322    0.0000 N   0  0  0  0  0  0  0  0  0  0  0  0
    3.3037   -4.2221    0.0000 C   0  0  0  0  0  0  0  0  0  0  0  0
    2.0046   -4.9721    0.0000 C   0  0  0  0  0  0  0  0  0  0  0  0
    0.8899   -3.9684    0.0000 S   0  0  0  0  0  0  0  0  0  0  0  0
    1.5000   -2.5981    0.0000 C   0  0  0  0  0  0  0  0  0  0  0  0
    0.7500   -1.2990    0.0000 N   0  0  0  0  0  0  0  0  0  0  0  0
    1.5000    0.0000    0.0000 C   0  0  0  0  0  0  0  0  0  0  0  0
    0.7500    1.2990    0.0000 C   0  0  0  0  0  0  0  0  0  0  0  0
   -0.7500    1.2990    0.0000 O   0  0  0  0  0  0  0  0  0  0  0  0
   -1.5000    0.0000    0.0000 C   0  0  0  0  0  0  0  0  0  0  0  0
   -0.7500   -1.2990    0.0000 C   0  0  0  0  0  0  0  0  0  0  0  0
    2.9918   -2.7549    0.0000 N   0  0  0  0  0  0  0  0  0  0  0  0
    4.9858   -6.2994    0.0000 C   0  0  0  0  0  0  0  0  0  0  0  0
    6.4776   -6.4562    0.0000 N   0  0  0  0  0  0  0  0  0  0  0  0
  1  2  1  0
  2  3  2  0
  3  4  1  0
  4  5  1  0
  5  6  2  0
  6  7  1  0
  7  8  1  0
  8  9  1  0
  9 10  1  0
 10 11  1  0
 11 12  1  0
 12 13  1  0
 13 14  1  0
  8 15  2  0
  4 16  1  0
 16 17  2  0
 17  2  1  0
 15  5  1  0
 14  9  1  0
M  END
>  <assay_chembl_id>  (459) 
CHEMBL3374324

>  <assay_description>  (459) 
Inhibition of androgen receptor in human LNCaP cells assessed as inhibition of prostate-specific antigen secretion into media after 3 days

>  <parent_molecule_chembl_id>  (459) 
CHEMBL3323492

>  <canonical_smiles>  (459) 
Clc1cn(-c2csc(N3CCOCC3)n2)cn1

>  <standard_type>  (459) 
IC50

>  <standard_relation>  (459) 
=

>  <standard_value>  (459) 
720.0

>  <standard_units>  (459) 
nM

>  <target_pref_name>  (459) 
Androgen Receptor

>  <target_chembl_id>  (459) 
CHEMBL1871

>  <target_organism>  (459) 
Homo sapiens

>  <pchembl_median>  (459) 
6.43

$$$$
CHEMBL3323491
     RDKit          2D

 20 22  0  0  0  0  0  0  0  0999 V2000
    3.0000    0.0000    0.0000 O   0  0  0  0  0  0  0  0  0  0  0  0
    1.5000    0.0000    0.0000 C   0  0  0  0  0  0  0  0  0  0  0  0
    0.7500   -1.2990    0.0000 C   0  0  0  0  0  0  0  0  0  0  0  0
    1.5000   -2.5981    0.0000 C   0  0  0  0  0  0  0  0  0  0  0  0
    2.9918   -2.7549    0.0000 C   0  0  0  0  0  0  0  0  0  0  0  0
    3.3037   -4.2221    0.0000 S   0  0  0  0  0  0  0  0  0  0  0  0
    2.0046   -4.9721    0.0000 C   0  0  0  0  0  0  0  0  0  0  0  0
    1.8478   -6.4639    0.0000 N   0  0  0  0  0  0  0  0  0  0  0  0
    0.4775   -7.0740    0.0000 C   0  0  0  0  0  0  0  0  0  0  0  0
    0.3207   -8.5658    0.0000 C   0  0  0  0  0  0  0  0  0  0  0  0
    1.5342   -9.4474    0.0000 O   0  0  0  0  0  0  0  0  0  0  0  0
    2.9046   -8.8373    0.0000 C   0  0  0  0  0  0  0  0  0  0  0  0
    3.0613   -7.3456    0.0000 C   0  0  0  0  0  0  0  0  0  0  0  0
    0.8899   -3.9684    0.0000 N   0  0  0  0  0  0  0  0  0  0  0  0
   -0.7500   -1.2990    0.0000 C   0  0  0  0  0  0  0  0  0  0  0  0
   -1.5000    0.0000    0.0000 C   0  0  0  0  0  0  0  0  0  0  0  0
   -0.7500    1.2990    0.0000 C   0  0  0  0  0  0  0  0  0  0  0  0
   -1.5000    2.5981    0.0000 F   0  0  0  0  0  0  0  0  0  0  0  0
    0.7500    1.2990    0.0000 C   0  0  0  0  0  0  0  0  0  0  0  0
    1.5000    2.5981    0.0000 F   0  0  0  0  0  0  0  0  0  0  0  0
  1  2  1  0
  2  3  2  0
  3  4  1  0
  4  5  2  0
  5  6  1  0
  6  7  1  0
  7  8  1  0
  8  9  1  0
  9 10  1  0
 10 11  1  0
 11 12  1  0
 12 13  1  0
  7 14  2  0
  3 15  1  0
 15 16  2  0
 16 17  1  0
 17 18  1  0
 17 19  2  0
 19 20  1  0
 19  2  1  0
 14  4  1  0
 13  8  1  0
M  END
>  <assay_chembl_id>  (460) 
CHEMBL3374324

>  <assay_description>  (460) 
Inhibition of androgen receptor in human LNCaP cells assessed as inhibition of prostate-specific antigen secretion into media after 3 days

>  <parent_molecule_chembl_id>  (460) 
CHEMBL3323491

>  <canonical_smiles>  (460) 
Oc1c(-c2csc(N3CCOCC3)n2)ccc(F)c1F

>  <standard_type>  (460) 
IC50

>  <standard_relation>  (460) 
=

>  <standard_value>  (460) 
700.0

>  <standard_units>  (460) 
nM

>  <target_pref_name>  (460) 
Androgen Receptor

>  <target_chembl_id>  (460) 
CHEMBL1871

>  <target_organism>  (460) 
Homo sapiens

>  <pchembl_median>  (460) 
5.85

$$$$
CHEMBL3323490
     RDKit          2D

 18 20  0  0  0  0  0  0  0  0999 V2000
    7.2276   -7.7552    0.0000 Cl  0  0  0  0  0  0  0  0  0  0  0  0
    6.4776   -6.4562    0.0000 C   0  0  0  0  0  0  0  0  0  0  0  0
    7.0877   -5.0859    0.0000 N   0  0  0  0  0  0  0  0  0  0  0  0
    5.9730   -4.0822    0.0000 C   0  0  0  0  0  0  0  0  0  0  0  0
    4.6740   -4.8322    0.0000 N   0  0  0  0  0  0  0  0  0  0  0  0
    3.3037   -4.2221    0.0000 C   0  0  0  0  0  0  0  0  0  0  0  0
    2.0046   -4.9721    0.0000 C   0  0  0  0  0  0  0  0  0  0  0  0
    0.8899   -3.9684    0.0000 S   0  0  0  0  0  0  0  0  0  0  0  0
    1.5000   -2.5981    0.0000 C   0  0  0  0  0  0  0  0  0  0  0  0
    0.7500   -1.2990    0.0000 N   0  0  0  0  0  0  0  0  0  0  0  0
    1.5000    0.0000    0.0000 C   0  0  0  0  0  0  0  0  0  0  0  0
    0.7500    1.2990    0.0000 C   0  0  0  0  0  0  0  0  0  0  0  0
   -0.7500    1.2990    0.0000 O   0  0  0  0  0  0  0  0  0  0  0  0
   -1.5000    0.0000    0.0000 C   0  0  0  0  0  0  0  0  0  0  0  0
   -0.7500   -1.2990    0.0000 C   0  0  0  0  0  0  0  0  0  0  0  0
    2.9918   -2.7549    0.0000 N   0  0  0  0  0  0  0  0  0  0  0  0
    4.9858   -6.2994    0.0000 C   0  0  0  0  0  0  0  0  0  0  0  0
    3.9821   -7.4141    0.0000 Cl  0  0  0  0  0  0  0  0  0  0  0  0
  1  2  1  0
  2  3  1  0
  3  4  2  0
  4  5  1  0
  5  6  1  0
  6  7  2  0
  7  8  1  0
  8  9  1  0
  9 10  1  0
 10 11  1  0
 11 12  1  0
 12 13  1  0
 13 14  1  0
 14 15  1  0
  9 16  2  0
  5 17  1  0
 17 18  1  0
 17  2  2  0
 16  6  1  0
 15 10  1  0
M  END
>  <assay_chembl_id>  (461) 
CHEMBL3374324

>  <assay_description>  (461) 
Inhibition of androgen receptor in human LNCaP cells assessed as inhibition of prostate-specific antigen secretion into media after 3 days

>  <parent_molecule_chembl_id>  (461) 
CHEMBL3323490

>  <canonical_smiles>  (461) 
Clc1ncn(-c2csc(N3CCOCC3)n2)c1Cl

>  <standard_type>  (461) 
IC50

>  <standard_relation>  (461) 
=

>  <standard_value>  (461) 
570.0

>  <standard_units>  (461) 
nM

>  <target_pref_name>  (461) 
Androgen Receptor

>  <target_chembl_id>  (461) 
CHEMBL1871

>  <target_organism>  (461) 
Homo sapiens

>  <pchembl_median>  (461) 
6.77

$$$$
CHEMBL3323489
     RDKit          2D

 18 20  0  0  0  0  0  0  0  0999 V2000
    7.2276   -7.7552    0.0000 Cl  0  0  0  0  0  0  0  0  0  0  0  0
    6.4776   -6.4562    0.0000 C   0  0  0  0  0  0  0  0  0  0  0  0
    7.0877   -5.0859    0.0000 N   0  0  0  0  0  0  0  0  0  0  0  0
    5.9730   -4.0822    0.0000 C   0  0  0  0  0  0  0  0  0  0  0  0
    4.6740   -4.8322    0.0000 N   0  0  0  0  0  0  0  0  0  0  0  0
    3.3037   -4.2221    0.0000 C   0  0  0  0  0  0  0  0  0  0  0  0
    2.0046   -4.9721    0.0000 C   0  0  0  0  0  0  0  0  0  0  0  0
    0.8899   -3.9684    0.0000 S   0  0  0  0  0  0  0  0  0  0  0  0
    1.5000   -2.5981    0.0000 C   0  0  0  0  0  0  0  0  0  0  0  0
    0.7500   -1.2990    0.0000 N   0  0  0  0  0  0  0  0  0  0  0  0
    1.5000    0.0000    0.0000 C   0  0  0  0  0  0  0  0  0  0  0  0
    0.7500    1.2990    0.0000 C   0  0  0  0  0  0  0  0  0  0  0  0
   -0.7500    1.2990    0.0000 O   0  0  0  0  0  0  0  0  0  0  0  0
   -1.5000    0.0000    0.0000 C   0  0  0  0  0  0  0  0  0  0  0  0
   -0.7500   -1.2990    0.0000 C   0  0  0  0  0  0  0  0  0  0  0  0
    2.9918   -2.7549    0.0000 N   0  0  0  0  0  0  0  0  0  0  0  0
    4.9858   -6.2994    0.0000 C   0  0  0  0  0  0  0  0  0  0  0  0
    3.9821   -7.4141    0.0000 Br  0  0  0  0  0  0  0  0  0  0  0  0
  1  2  1  0
  2  3  1  0
  3  4  2  0
  4  5  1  0
  5  6  1  0
  6  7  2  0
  7  8  1  0
  8  9  1  0
  9 10  1  0
 10 11  1  0
 11 12  1  0
 12 13  1  0
 13 14  1  0
 14 15  1  0
  9 16  2  0
  5 17  1  0
 17 18  1  0
 17  2  2  0
 16  6  1  0
 15 10  1  0
M  END
>  <assay_chembl_id>  (462) 
CHEMBL3374324

>  <assay_description>  (462) 
Inhibition of androgen receptor in human LNCaP cells assessed as inhibition of prostate-specific antigen secretion into media after 3 days

>  <parent_molecule_chembl_id>  (462) 
CHEMBL3323489

>  <canonical_smiles>  (462) 
Clc1ncn(-c2csc(N3CCOCC3)n2)c1Br

>  <standard_type>  (462) 
IC50

>  <standard_relation>  (462) 
=

>  <standard_value>  (462) 
440.0

>  <standard_units>  (462) 
nM

>  <target_pref_name>  (462) 
Androgen Receptor

>  <target_chembl_id>  (462) 
CHEMBL1871

>  <target_organism>  (462) 
Homo sapiens

>  <pchembl_median>  (462) 
6.3

$$$$
CHEMBL3323488
     RDKit          2D

 20 22  0  0  0  0  0  0  0  0999 V2000
    3.7500   -1.2990    0.0000 C   0  0  0  0  0  0  0  0  0  0  0  0
    3.0000    0.0000    0.0000 O   0  0  0  0  0  0  0  0  0  0  0  0
    1.5000    0.0000    0.0000 C   0  0  0  0  0  0  0  0  0  0  0  0
    0.7500   -1.2990    0.0000 C   0  0  0  0  0  0  0  0  0  0  0  0
   -0.7500   -1.2990    0.0000 C   0  0  0  0  0  0  0  0  0  0  0  0
   -1.5000   -2.5981    0.0000 F   0  0  0  0  0  0  0  0  0  0  0  0
   -1.5000    0.0000    0.0000 C   0  0  0  0  0  0  0  0  0  0  0  0
   -0.7500    1.2990    0.0000 C   0  0  0  0  0  0  0  0  0  0  0  0
    0.7500    1.2990    0.0000 C   0  0  0  0  0  0  0  0  0  0  0  0
    1.5000    2.5981    0.0000 C   0  0  0  0  0  0  0  0  0  0  0  0
    0.8899    3.9684    0.0000 C   0  0  0  0  0  0  0  0  0  0  0  0
    2.0046    4.9721    0.0000 S   0  0  0  0  0  0  0  0  0  0  0  0
    3.3037    4.2221    0.0000 C   0  0  0  0  0  0  0  0  0  0  0  0
    4.6740    4.8322    0.0000 N   0  0  0  0  0  0  0  0  0  0  0  0
    5.8875    3.9505    0.0000 C   0  0  0  0  0  0  0  0  0  0  0  0
    7.2578    4.5606    0.0000 C   0  0  0  0  0  0  0  0  0  0  0  0
    7.4146    6.0524    0.0000 O   0  0  0  0  0  0  0  0  0  0  0  0
    6.2011    6.9341    0.0000 C   0  0  0  0  0  0  0  0  0  0  0  0
    4.8308    6.3240    0.0000 C   0  0  0  0  0  0  0  0  0  0  0  0
    2.9918    2.7549    0.0000 N   0  0  0  0  0  0  0  0  0  0  0  0
  1  2  1  0
  2  3  1  0
  3  4  2  0
  4  5  1  0
  5  6  1  0
  5  7  2  0
  7  8  1  0
  8  9  2  0
  9 10  1  0
 10 11  2  0
 11 12  1  0
 12 13  1  0
 13 14  1  0
 14 15  1  0
 15 16  1  0
 16 17  1  0
 17 18  1  0
 18 19  1  0
 13 20  2  0
  9  3  1  0
 20 10  1  0
 19 14  1  0
M  END
>  <assay_chembl_id>  (463) 
CHEMBL3374324

>  <assay_description>  (463) 
Inhibition of androgen receptor in human LNCaP cells assessed as inhibition of prostate-specific antigen secretion into media after 3 days

>  <parent_molecule_chembl_id>  (463) 
CHEMBL3323488

>  <canonical_smiles>  (463) 
COc1cc(F)ccc1-c1csc(N2CCOCC2)n1

>  <standard_type>  (463) 
IC50

>  <standard_relation>  (463) 
=

>  <standard_value>  (463) 
230.0

>  <standard_units>  (463) 
nM

>  <target_pref_name>  (463) 
Androgen Receptor

>  <target_chembl_id>  (463) 
CHEMBL1871

>  <target_organism>  (463) 
Homo sapiens

>  <pchembl_median>  (463) 
6.36

$$$$
CHEMBL3323487
     RDKit          2D

 19 21  0  0  0  0  0  0  0  0999 V2000
    3.0000    0.0000    0.0000 O   0  0  0  0  0  0  0  0  0  0  0  0
    1.5000    0.0000    0.0000 C   0  0  0  0  0  0  0  0  0  0  0  0
    0.7500   -1.2990    0.0000 C   0  0  0  0  0  0  0  0  0  0  0  0
    1.5000   -2.5981    0.0000 F   0  0  0  0  0  0  0  0  0  0  0  0
   -0.7500   -1.2990    0.0000 C   0  0  0  0  0  0  0  0  0  0  0  0
   -1.5000    0.0000    0.0000 C   0  0  0  0  0  0  0  0  0  0  0  0
   -0.7500    1.2990    0.0000 C   0  0  0  0  0  0  0  0  0  0  0  0
    0.7500    1.2990    0.0000 C   0  0  0  0  0  0  0  0  0  0  0  0
    1.5000    2.5981    0.0000 C   0  0  0  0  0  0  0  0  0  0  0  0
    0.8899    3.9684    0.0000 C   0  0  0  0  0  0  0  0  0  0  0  0
    2.0046    4.9721    0.0000 S   0  0  0  0  0  0  0  0  0  0  0  0
    3.3037    4.2221    0.0000 C   0  0  0  0  0  0  0  0  0  0  0  0
    4.6740    4.8322    0.0000 N   0  0  0  0  0  0  0  0  0  0  0  0
    5.8875    3.9505    0.0000 C   0  0  0  0  0  0  0  0  0  0  0  0
    7.2578    4.5606    0.0000 C   0  0  0  0  0  0  0  0  0  0  0  0
    7.4146    6.0524    0.0000 O   0  0  0  0  0  0  0  0  0  0  0  0
    6.2011    6.9341    0.0000 C   0  0  0  0  0  0  0  0  0  0  0  0
    4.8308    6.3240    0.0000 C   0  0  0  0  0  0  0  0  0  0  0  0
    2.9918    2.7549    0.0000 N   0  0  0  0  0  0  0  0  0  0  0  0
  1  2  1  0
  2  3  2  0
  3  4  1  0
  3  5  1  0
  5  6  2  0
  6  7  1  0
  7  8  2  0
  8  9  1  0
  9 10  2  0
 10 11  1  0
 11 12  1  0
 12 13  1  0
 13 14  1  0
 14 15  1  0
 15 16  1  0
 16 17  1  0
 17 18  1  0
 12 19  2  0
  8  2  1  0
 19  9  1  0
 18 13  1  0
M  END
>  <assay_chembl_id>  (464) 
CHEMBL3374324

>  <assay_description>  (464) 
Inhibition of androgen receptor in human LNCaP cells assessed as inhibition of prostate-specific antigen secretion into media after 3 days

>  <parent_molecule_chembl_id>  (464) 
CHEMBL3323487

>  <canonical_smiles>  (464) 
Oc1c(F)cccc1-c1csc(N2CCOCC2)n1

>  <standard_type>  (464) 
IC50

>  <standard_relation>  (464) 
=

>  <standard_value>  (464) 
150.0

>  <standard_units>  (464) 
nM

>  <target_pref_name>  (464) 
Androgen Receptor

>  <target_chembl_id>  (464) 
CHEMBL1871

>  <target_organism>  (464) 
Homo sapiens

>  <pchembl_median>  (464) 
6.54

$$$$
CHEMBL3323486
     RDKit          2D

 16 18  0  0  0  0  0  0  0  0999 V2000
    7.0877   -5.0859    0.0000 C   0  0  0  0  0  0  0  0  0  0  0  0
    5.9730   -4.0822    0.0000 C   0  0  0  0  0  0  0  0  0  0  0  0
    4.6740   -4.8322    0.0000 C   0  0  0  0  0  0  0  0  0  0  0  0
    3.3037   -4.2221    0.0000 C   0  0  0  0  0  0  0  0  0  0  0  0
    2.0046   -4.9721    0.0000 C   0  0  0  0  0  0  0  0  0  0  0  0
    0.8899   -3.9684    0.0000 S   0  0  0  0  0  0  0  0  0  0  0  0
    1.5000   -2.5981    0.0000 C   0  0  0  0  0  0  0  0  0  0  0  0
    0.7500   -1.2990    0.0000 N   0  0  0  0  0  0  0  0  0  0  0  0
    1.5000    0.0000    0.0000 C   0  0  0  0  0  0  0  0  0  0  0  0
    0.7500    1.2990    0.0000 C   0  0  0  0  0  0  0  0  0  0  0  0
   -0.7500    1.2990    0.0000 O   0  0  0  0  0  0  0  0  0  0  0  0
   -1.5000    0.0000    0.0000 C   0  0  0  0  0  0  0  0  0  0  0  0
   -0.7500   -1.2990    0.0000 C   0  0  0  0  0  0  0  0  0  0  0  0
    2.9918   -2.7549    0.0000 N   0  0  0  0  0  0  0  0  0  0  0  0
    4.9858   -6.2994    0.0000 C   0  0  0  0  0  0  0  0  0  0  0  0
    6.4776   -6.4562    0.0000 S   0  0  0  0  0  0  0  0  0  0  0  0
  1  2  2  0
  2  3  1  0
  3  4  1  0
  4  5  2  0
  5  6  1  0
  6  7  1  0
  7  8  1  0
  8  9  1  0
  9 10  1  0
 10 11  1  0
 11 12  1  0
 12 13  1  0
  7 14  2  0
  3 15  2  0
 15 16  1  0
 16  1  1  0
 14  4  1  0
 13  8  1  0
M  END
>  <assay_chembl_id>  (465) 
CHEMBL3374324

>  <assay_description>  (465) 
Inhibition of androgen receptor in human LNCaP cells assessed as inhibition of prostate-specific antigen secretion into media after 3 days

>  <parent_molecule_chembl_id>  (465) 
CHEMBL3323486

>  <canonical_smiles>  (465) 
c1cc(-c2csc(N3CCOCC3)n2)cs1

>  <standard_type>  (465) 
IC50

>  <standard_relation>  (465) 
=

>  <standard_value>  (465) 
220.0

>  <standard_units>  (465) 
nM

>  <target_pref_name>  (465) 
Androgen Receptor

>  <target_chembl_id>  (465) 
CHEMBL1871

>  <target_organism>  (465) 
Homo sapiens

>  <pchembl_median>  (465) 
6.6

$$$$
CHEMBL3323485
     RDKit          2D

 18 20  0  0  0  0  0  0  0  0999 V2000
    7.2276   -7.7552    0.0000 C   0  0  0  0  0  0  0  0  0  0  0  0
    6.4776   -6.4562    0.0000 C   0  0  0  0  0  0  0  0  0  0  0  0
    7.0877   -5.0859    0.0000 S   0  0  0  0  0  0  0  0  0  0  0  0
    5.9730   -4.0822    0.0000 C   0  0  0  0  0  0  0  0  0  0  0  0
    4.6740   -4.8322    0.0000 C   0  0  0  0  0  0  0  0  0  0  0  0
    3.3037   -4.2221    0.0000 C   0  0  0  0  0  0  0  0  0  0  0  0
    2.0046   -4.9721    0.0000 C   0  0  0  0  0  0  0  0  0  0  0  0
    0.8899   -3.9684    0.0000 S   0  0  0  0  0  0  0  0  0  0  0  0
    1.5000   -2.5981    0.0000 C   0  0  0  0  0  0  0  0  0  0  0  0
    0.7500   -1.2990    0.0000 N   0  0  0  0  0  0  0  0  0  0  0  0
    1.5000    0.0000    0.0000 C   0  0  0  0  0  0  0  0  0  0  0  0
    0.7500    1.2990    0.0000 C   0  0  0  0  0  0  0  0  0  0  0  0
   -0.7500    1.2990    0.0000 O   0  0  0  0  0  0  0  0  0  0  0  0
   -1.5000    0.0000    0.0000 C   0  0  0  0  0  0  0  0  0  0  0  0
   -0.7500   -1.2990    0.0000 C   0  0  0  0  0  0  0  0  0  0  0  0
    2.9918   -2.7549    0.0000 N   0  0  0  0  0  0  0  0  0  0  0  0
    4.9858   -6.2994    0.0000 C   0  0  0  0  0  0  0  0  0  0  0  0
    3.9821   -7.4141    0.0000 C   0  0  0  0  0  0  0  0  0  0  0  0
  1  2  1  0
  2  3  1  0
  3  4  1  0
  4  5  2  0
  5  6  1  0
  6  7  2  0
  7  8  1  0
  8  9  1  0
  9 10  1  0
 10 11  1  0
 11 12  1  0
 12 13  1  0
 13 14  1  0
 14 15  1  0
  9 16  2  0
  5 17  1  0
 17 18  1  0
 17  2  2  0
 16  6  1  0
 15 10  1  0
M  END
>  <assay_chembl_id>  (466) 
CHEMBL3374324

>  <assay_description>  (466) 
Inhibition of androgen receptor in human LNCaP cells assessed as inhibition of prostate-specific antigen secretion into media after 3 days

>  <parent_molecule_chembl_id>  (466) 
CHEMBL3323485

>  <canonical_smiles>  (466) 
Cc1scc(-c2csc(N3CCOCC3)n2)c1C

>  <standard_type>  (466) 
IC50

>  <standard_relation>  (466) 
=

>  <standard_value>  (466) 
430.0

>  <standard_units>  (466) 
nM

>  <target_pref_name>  (466) 
Androgen Receptor

>  <target_chembl_id>  (466) 
CHEMBL1871

>  <target_organism>  (466) 
Homo sapiens

>  <pchembl_median>  (466) 
7.48

$$$$
CHEMBL3323484
     RDKit          2D

 21 23  0  0  0  0  0  0  0  0999 V2000
    3.7500    1.2990    0.0000 C   0  0  0  0  0  0  0  0  0  0  0  0
    3.0000    0.0000    0.0000 O   0  0  0  0  0  0  0  0  0  0  0  0
    1.5000    0.0000    0.0000 C   0  0  0  0  0  0  0  0  0  0  0  0
    0.7500   -1.2990    0.0000 C   0  0  0  0  0  0  0  0  0  0  0  0
    1.5000   -2.5981    0.0000 C   0  0  0  0  0  0  0  0  0  0  0  0
    2.9918   -2.7549    0.0000 C   0  0  0  0  0  0  0  0  0  0  0  0
    3.3037   -4.2221    0.0000 S   0  0  0  0  0  0  0  0  0  0  0  0
    2.0046   -4.9721    0.0000 C   0  0  0  0  0  0  0  0  0  0  0  0
    1.8478   -6.4639    0.0000 N   0  0  0  0  0  0  0  0  0  0  0  0
    0.4775   -7.0740    0.0000 C   0  0  0  0  0  0  0  0  0  0  0  0
    0.3207   -8.5658    0.0000 C   0  0  0  0  0  0  0  0  0  0  0  0
    1.5342   -9.4474    0.0000 O   0  0  0  0  0  0  0  0  0  0  0  0
    2.9046   -8.8373    0.0000 C   0  0  0  0  0  0  0  0  0  0  0  0
    3.0613   -7.3456    0.0000 C   0  0  0  0  0  0  0  0  0  0  0  0
    0.8899   -3.9684    0.0000 N   0  0  0  0  0  0  0  0  0  0  0  0
   -0.7500   -1.2990    0.0000 C   0  0  0  0  0  0  0  0  0  0  0  0
   -1.5000    0.0000    0.0000 C   0  0  0  0  0  0  0  0  0  0  0  0
   -0.7500    1.2990    0.0000 C   0  0  0  0  0  0  0  0  0  0  0  0
   -1.5000    2.5981    0.0000 F   0  0  0  0  0  0  0  0  0  0  0  0
    0.7500    1.2990    0.0000 C   0  0  0  0  0  0  0  0  0  0  0  0
    1.5000    2.5981    0.0000 F   0  0  0  0  0  0  0  0  0  0  0  0
  1  2  1  0
  2  3  1  0
  3  4  2  0
  4  5  1  0
  5  6  2  0
  6  7  1  0
  7  8  1  0
  8  9  1  0
  9 10  1  0
 10 11  1  0
 11 12  1  0
 12 13  1  0
 13 14  1  0
  8 15  2  0
  4 16  1  0
 16 17  2  0
 17 18  1  0
 18 19  1  0
 18 20  2  0
 20 21  1  0
 20  3  1  0
 15  5  1  0
 14  9  1  0
M  END
>  <assay_chembl_id>  (467) 
CHEMBL3374324

>  <assay_description>  (467) 
Inhibition of androgen receptor in human LNCaP cells assessed as inhibition of prostate-specific antigen secretion into media after 3 days

>  <parent_molecule_chembl_id>  (467) 
CHEMBL3323484

>  <canonical_smiles>  (467) 
COc1c(-c2csc(N3CCOCC3)n2)ccc(F)c1F

>  <standard_type>  (467) 
IC50

>  <standard_relation>  (467) 
=

>  <standard_value>  (467) 
250.0

>  <standard_units>  (467) 
nM

>  <target_pref_name>  (467) 
Androgen Receptor

>  <target_chembl_id>  (467) 
CHEMBL1871

>  <target_organism>  (467) 
Homo sapiens

>  <pchembl_median>  (467) 
5.51

$$$$
CHEMBL3323483
     RDKit          2D

 18 20  0  0  0  0  0  0  0  0999 V2000
    7.2276   -7.7552    0.0000 Br  0  0  0  0  0  0  0  0  0  0  0  0
    6.4776   -6.4562    0.0000 C   0  0  0  0  0  0  0  0  0  0  0  0
    7.0877   -5.0859    0.0000 N   0  0  0  0  0  0  0  0  0  0  0  0
    5.9730   -4.0822    0.0000 C   0  0  0  0  0  0  0  0  0  0  0  0
    4.6740   -4.8322    0.0000 N   0  0  0  0  0  0  0  0  0  0  0  0
    3.3037   -4.2221    0.0000 C   0  0  0  0  0  0  0  0  0  0  0  0
    2.0046   -4.9721    0.0000 C   0  0  0  0  0  0  0  0  0  0  0  0
    0.8899   -3.9684    0.0000 S   0  0  0  0  0  0  0  0  0  0  0  0
    1.5000   -2.5981    0.0000 C   0  0  0  0  0  0  0  0  0  0  0  0
    0.7500   -1.2990    0.0000 N   0  0  0  0  0  0  0  0  0  0  0  0
    1.5000    0.0000    0.0000 C   0  0  0  0  0  0  0  0  0  0  0  0
    0.7500    1.2990    0.0000 C   0  0  0  0  0  0  0  0  0  0  0  0
   -0.7500    1.2990    0.0000 O   0  0  0  0  0  0  0  0  0  0  0  0
   -1.5000    0.0000    0.0000 C   0  0  0  0  0  0  0  0  0  0  0  0
   -0.7500   -1.2990    0.0000 C   0  0  0  0  0  0  0  0  0  0  0  0
    2.9918   -2.7549    0.0000 N   0  0  0  0  0  0  0  0  0  0  0  0
    4.9858   -6.2994    0.0000 C   0  0  0  0  0  0  0  0  0  0  0  0
    3.9821   -7.4141    0.0000 Br  0  0  0  0  0  0  0  0  0  0  0  0
  1  2  1  0
  2  3  1  0
  3  4  2  0
  4  5  1  0
  5  6  1  0
  6  7  2  0
  7  8  1  0
  8  9  1  0
  9 10  1  0
 10 11  1  0
 11 12  1  0
 12 13  1  0
 13 14  1  0
 14 15  1  0
  9 16  2  0
  5 17  1  0
 17 18  1  0
 17  2  2  0
 16  6  1  0
 15 10  1  0
M  END
>  <assay_chembl_id>  (468) 
CHEMBL3374324

>  <assay_description>  (468) 
Inhibition of androgen receptor in human LNCaP cells assessed as inhibition of prostate-specific antigen secretion into media after 3 days

>  <parent_molecule_chembl_id>  (468) 
CHEMBL3323483

>  <canonical_smiles>  (468) 
Brc1ncn(-c2csc(N3CCOCC3)n2)c1Br

>  <standard_type>  (468) 
IC50

>  <standard_relation>  (468) 
=

>  <standard_value>  (468) 
170.0

>  <standard_units>  (468) 
nM

>  <target_pref_name>  (468) 
Androgen Receptor

>  <target_chembl_id>  (468) 
CHEMBL1871

>  <target_organism>  (468) 
Homo sapiens

>  <pchembl_median>  (468) 
6.15

$$$$
CHEMBL3323482
     RDKit          2D

 19 21  0  0  0  0  0  0  0  0999 V2000
    4.8308   -6.3240    0.0000 C   0  0  0  0  0  0  0  0  0  0  0  0
    4.6740   -4.8322    0.0000 C   0  0  0  0  0  0  0  0  0  0  0  0
    3.3037   -4.2221    0.0000 C   0  0  0  0  0  0  0  0  0  0  0  0
    2.9918   -2.7549    0.0000 S   0  0  0  0  0  0  0  0  0  0  0  0
    1.5000   -2.5981    0.0000 C   0  0  0  0  0  0  0  0  0  0  0  0
    0.7500   -1.2990    0.0000 N   0  0  0  0  0  0  0  0  0  0  0  0
    1.5000    0.0000    0.0000 C   0  0  0  0  0  0  0  0  0  0  0  0
    0.7500    1.2990    0.0000 C   0  0  0  0  0  0  0  0  0  0  0  0
   -0.7500    1.2990    0.0000 O   0  0  0  0  0  0  0  0  0  0  0  0
   -1.5000    0.0000    0.0000 C   0  0  0  0  0  0  0  0  0  0  0  0
   -0.7500   -1.2990    0.0000 C   0  0  0  0  0  0  0  0  0  0  0  0
    0.8899   -3.9684    0.0000 N   0  0  0  0  0  0  0  0  0  0  0  0
    2.0046   -4.9721    0.0000 C   0  0  0  0  0  0  0  0  0  0  0  0
    1.8478   -6.4639    0.0000 C   0  0  0  0  0  0  0  0  0  0  0  0
    0.4775   -7.0740    0.0000 C   0  0  0  0  0  0  0  0  0  0  0  0
    0.3207   -8.5658    0.0000 C   0  0  0  0  0  0  0  0  0  0  0  0
    1.5342   -9.4474    0.0000 C   0  0  0  0  0  0  0  0  0  0  0  0
    2.9046   -8.8373    0.0000 C   0  0  0  0  0  0  0  0  0  0  0  0
    3.0613   -7.3456    0.0000 C   0  0  0  0  0  0  0  0  0  0  0  0
  1  2  1  0
  2  3  1  0
  3  4  1  0
  4  5  1  0
  5  6  1  0
  6  7  1  0
  7  8  1  0
  8  9  1  0
  9 10  1  0
 10 11  1  0
  5 12  2  0
 12 13  1  0
 13 14  1  0
 14 15  2  0
 15 16  1  0
 16 17  2  0
 17 18  1  0
 18 19  2  0
 13  3  2  0
 19 14  1  0
 11  6  1  0
M  END
>  <assay_chembl_id>  (469) 
CHEMBL3374324

>  <assay_description>  (469) 
Inhibition of androgen receptor in human LNCaP cells assessed as inhibition of prostate-specific antigen secretion into media after 3 days

>  <parent_molecule_chembl_id>  (469) 
CHEMBL3323482

>  <canonical_smiles>  (469) 
CCc1sc(N2CCOCC2)nc1-c1ccccc1

>  <standard_type>  (469) 
IC50

>  <standard_relation>  (469) 
=

>  <standard_value>  (469) 
8430.0

>  <standard_units>  (469) 
nM

>  <target_pref_name>  (469) 
Androgen Receptor

>  <target_chembl_id>  (469) 
CHEMBL1871

>  <target_organism>  (469) 
Homo sapiens

>  <pchembl_median>  (469) 
6.14

$$$$
CHEMBL3323481
     RDKit          2D

 21 24  0  0  0  0  0  0  0  0999 V2000
  -10.7735   -1.3350    0.0000 O   0  0  0  0  0  0  0  0  0  0  0  0
   -9.3469   -1.7986    0.0000 C   0  0  0  0  0  0  0  0  0  0  0  0
   -8.2322   -0.7949    0.0000 C   0  0  0  0  0  0  0  0  0  0  0  0
   -6.8056   -1.2584    0.0000 C   0  0  0  0  0  0  0  0  0  0  0  0
   -6.4937   -2.7256    0.0000 C   0  0  0  0  0  0  0  0  0  0  0  0
   -5.0672   -3.1891    0.0000 C   0  0  0  0  0  0  0  0  0  0  0  0
   -3.8536   -2.3075    0.0000 N   0  0  0  0  0  0  0  0  0  0  0  0
   -2.6401   -3.1891    0.0000 C   0  0  0  0  0  0  0  0  0  0  0  0
   -1.2135   -2.7256    0.0000 C   0  0  0  0  0  0  0  0  0  0  0  0
    0.0000   -3.6073    0.0000 C   0  0  0  0  0  0  0  0  0  0  0  0
    1.2135   -2.7256    0.0000 N   0  0  0  0  0  0  0  0  0  0  0  0
    0.7500   -1.2990    0.0000 C   0  0  0  0  0  0  0  0  0  0  0  0
    1.5000    0.0000    0.0000 C   0  0  0  0  0  0  0  0  0  0  0  0
    0.7500    1.2990    0.0000 C   0  0  0  0  0  0  0  0  0  0  0  0
   -0.7500    1.2990    0.0000 C   0  0  0  0  0  0  0  0  0  0  0  0
   -1.5000    0.0000    0.0000 C   0  0  0  0  0  0  0  0  0  0  0  0
   -0.7500   -1.2990    0.0000 C   0  0  0  0  0  0  0  0  0  0  0  0
   -3.1036   -4.6157    0.0000 C   0  0  0  0  0  0  0  0  0  0  0  0
   -4.6036   -4.6157    0.0000 S   0  0  0  0  0  0  0  0  0  0  0  0
   -7.6085   -3.7293    0.0000 C   0  0  0  0  0  0  0  0  0  0  0  0
   -9.0350   -3.2658    0.0000 C   0  0  0  0  0  0  0  0  0  0  0  0
  1  2  1  0
  2  3  2  0
  3  4  1  0
  4  5  2  0
  5  6  1  0
  6  7  2  0
  7  8  1  0
  8  9  1  0
  9 10  2  0
 10 11  1  0
 11 12  1  0
 12 13  2  0
 13 14  1  0
 14 15  2  0
 15 16  1  0
 16 17  2  0
  8 18  2  0
 18 19  1  0
  5 20  1  0
 20 21  2  0
 21  2  1  0
 19  6  1  0
 17  9  1  0
 17 12  1  0
M  END
>  <assay_chembl_id>  (470) 
CHEMBL3374324

>  <assay_description>  (470) 
Inhibition of androgen receptor in human LNCaP cells assessed as inhibition of prostate-specific antigen secretion into media after 3 days

>  <parent_molecule_chembl_id>  (470) 
CHEMBL3323481

>  <canonical_smiles>  (470) 
Oc1ccc(-c2nc(-c3c[nH]c4ccccc34)cs2)cc1

>  <standard_type>  (470) 
IC50

>  <standard_relation>  (470) 
=

>  <standard_value>  (470) 
6460.0

>  <standard_units>  (470) 
nM

>  <target_pref_name>  (470) 
Androgen Receptor

>  <target_chembl_id>  (470) 
CHEMBL1871

>  <target_organism>  (470) 
Homo sapiens

>  <pchembl_median>  (470) 
7.58

$$$$
CHEMBL3323479
     RDKit          2D

 19 21  0  0  0  0  0  0  0  0999 V2000
    3.0000    0.0000    0.0000 Cl  0  0  0  0  0  0  0  0  0  0  0  0
    1.5000    0.0000    0.0000 C   0  0  0  0  0  0  0  0  0  0  0  0
    0.7500   -1.2990    0.0000 C   0  0  0  0  0  0  0  0  0  0  0  0
   -0.7500   -1.2990    0.0000 C   0  0  0  0  0  0  0  0  0  0  0  0
   -1.5000    0.0000    0.0000 C   0  0  0  0  0  0  0  0  0  0  0  0
   -3.0000    0.0000    0.0000 C   0  0  0  0  0  0  0  0  0  0  0  0
   -3.8817   -1.2135    0.0000 C   0  0  0  0  0  0  0  0  0  0  0  0
   -5.3083   -0.7500    0.0000 S   0  0  0  0  0  0  0  0  0  0  0  0
   -5.3083    0.7500    0.0000 C   0  0  0  0  0  0  0  0  0  0  0  0
   -6.5218    1.6317    0.0000 N   0  0  0  0  0  0  0  0  0  0  0  0
   -6.3650    3.1235    0.0000 C   0  0  0  0  0  0  0  0  0  0  0  0
   -7.5785    4.0051    0.0000 C   0  0  0  0  0  0  0  0  0  0  0  0
   -8.9488    3.3950    0.0000 O   0  0  0  0  0  0  0  0  0  0  0  0
   -9.1056    1.9033    0.0000 C   0  0  0  0  0  0  0  0  0  0  0  0
   -7.8921    1.0216    0.0000 C   0  0  0  0  0  0  0  0  0  0  0  0
   -3.8817    1.2135    0.0000 N   0  0  0  0  0  0  0  0  0  0  0  0
   -0.7500    1.2990    0.0000 C   0  0  0  0  0  0  0  0  0  0  0  0
    0.7500    1.2990    0.0000 C   0  0  0  0  0  0  0  0  0  0  0  0
    1.5000    2.5981    0.0000 Cl  0  0  0  0  0  0  0  0  0  0  0  0
  1  2  1  0
  2  3  2  0
  3  4  1  0
  4  5  2  0
  5  6  1  0
  6  7  2  0
  7  8  1  0
  8  9  1  0
  9 10  1  0
 10 11  1  0
 11 12  1  0
 12 13  1  0
 13 14  1  0
 14 15  1  0
  9 16  2  0
  5 17  1  0
 17 18  2  0
 18 19  1  0
 18  2  1  0
 16  6  1  0
 15 10  1  0
M  END
>  <assay_chembl_id>  (471) 
CHEMBL3374324

>  <assay_description>  (471) 
Inhibition of androgen receptor in human LNCaP cells assessed as inhibition of prostate-specific antigen secretion into media after 3 days

>  <parent_molecule_chembl_id>  (471) 
CHEMBL3323479

>  <canonical_smiles>  (471) 
Clc1ccc(-c2csc(N3CCOCC3)n2)cc1Cl

>  <standard_type>  (471) 
IC50

>  <standard_relation>  (471) 
=

>  <standard_value>  (471) 
2960.0

>  <standard_units>  (471) 
nM

>  <target_pref_name>  (471) 
Androgen Receptor

>  <target_chembl_id>  (471) 
CHEMBL1871

>  <target_organism>  (471) 
Homo sapiens

>  <pchembl_median>  (471) 
7.2

$$$$
CHEMBL3323478
     RDKit          2D

 19 21  0  0  0  0  0  0  0  0999 V2000
    3.0000    0.0000    0.0000 Cl  0  0  0  0  0  0  0  0  0  0  0  0
    1.5000    0.0000    0.0000 C   0  0  0  0  0  0  0  0  0  0  0  0
    0.7500   -1.2990    0.0000 C   0  0  0  0  0  0  0  0  0  0  0  0
   -0.7500   -1.2990    0.0000 C   0  0  0  0  0  0  0  0  0  0  0  0
   -1.5000    0.0000    0.0000 C   0  0  0  0  0  0  0  0  0  0  0  0
   -3.0000    0.0000    0.0000 C   0  0  0  0  0  0  0  0  0  0  0  0
   -3.8817   -1.2135    0.0000 C   0  0  0  0  0  0  0  0  0  0  0  0
   -5.3083   -0.7500    0.0000 S   0  0  0  0  0  0  0  0  0  0  0  0
   -5.3083    0.7500    0.0000 C   0  0  0  0  0  0  0  0  0  0  0  0
   -6.5218    1.6317    0.0000 N   0  0  0  0  0  0  0  0  0  0  0  0
   -6.3650    3.1235    0.0000 C   0  0  0  0  0  0  0  0  0  0  0  0
   -7.5785    4.0051    0.0000 C   0  0  0  0  0  0  0  0  0  0  0  0
   -8.9488    3.3950    0.0000 O   0  0  0  0  0  0  0  0  0  0  0  0
   -9.1056    1.9033    0.0000 C   0  0  0  0  0  0  0  0  0  0  0  0
   -7.8921    1.0216    0.0000 C   0  0  0  0  0  0  0  0  0  0  0  0
   -3.8817    1.2135    0.0000 N   0  0  0  0  0  0  0  0  0  0  0  0
   -0.7500    1.2990    0.0000 C   0  0  0  0  0  0  0  0  0  0  0  0
   -1.5000    2.5981    0.0000 Cl  0  0  0  0  0  0  0  0  0  0  0  0
    0.7500    1.2990    0.0000 C   0  0  0  0  0  0  0  0  0  0  0  0
  1  2  1  0
  2  3  2  0
  3  4  1  0
  4  5  2  0
  5  6  1  0
  6  7  2  0
  7  8  1  0
  8  9  1  0
  9 10  1  0
 10 11  1  0
 11 12  1  0
 12 13  1  0
 13 14  1  0
 14 15  1  0
  9 16  2  0
  5 17  1  0
 17 18  1  0
 17 19  2  0
 19  2  1  0
 16  6  1  0
 15 10  1  0
M  END
>  <assay_chembl_id>  (472) 
CHEMBL3374324

>  <assay_description>  (472) 
Inhibition of androgen receptor in human LNCaP cells assessed as inhibition of prostate-specific antigen secretion into media after 3 days

>  <parent_molecule_chembl_id>  (472) 
CHEMBL3323478

>  <canonical_smiles>  (472) 
Clc1ccc(-c2csc(N3CCOCC3)n2)c(Cl)c1

>  <standard_type>  (472) 
IC50

>  <standard_relation>  (472) 
=

>  <standard_value>  (472) 
1320.0

>  <standard_units>  (472) 
nM

>  <target_pref_name>  (472) 
Androgen Receptor

>  <target_chembl_id>  (472) 
CHEMBL1871

>  <target_organism>  (472) 
Homo sapiens

>  <pchembl_median>  (472) 
8.375

$$$$
CHEMBL3323477
     RDKit          2D

 21 23  0  0  0  0  0  0  0  0999 V2000
    4.5000    0.0000    0.0000 F   0  0  0  0  0  0  0  0  0  0  0  0
    3.0000    0.0000    0.0000 C   0  0  0  0  0  0  0  0  0  0  0  0
    3.0000   -1.5000    0.0000 F   0  0  0  0  0  0  0  0  0  0  0  0
    3.0000    1.5000    0.0000 F   0  0  0  0  0  0  0  0  0  0  0  0
    1.5000    0.0000    0.0000 C   0  0  0  0  0  0  0  0  0  0  0  0
    0.7500   -1.2990    0.0000 C   0  0  0  0  0  0  0  0  0  0  0  0
   -0.7500   -1.2990    0.0000 N   0  0  0  0  0  0  0  0  0  0  0  0
   -1.5000   -2.5981    0.0000 C   0  0  0  0  0  0  0  0  0  0  0  0
   -0.8899   -3.9684    0.0000 N   0  0  0  0  0  0  0  0  0  0  0  0
   -2.0046   -4.9721    0.0000 C   0  0  0  0  0  0  0  0  0  0  0  0
   -1.8478   -6.4639    0.0000 C   0  0  0  0  0  0  0  0  0  0  0  0
   -3.0613   -7.3456    0.0000 C   0  0  0  0  0  0  0  0  0  0  0  0
   -2.9046   -8.8373    0.0000 C   0  0  0  0  0  0  0  0  0  0  0  0
   -1.5342   -9.4474    0.0000 C   0  0  0  0  0  0  0  0  0  0  0  0
   -0.3207   -8.5658    0.0000 C   0  0  0  0  0  0  0  0  0  0  0  0
   -0.4775   -7.0740    0.0000 C   0  0  0  0  0  0  0  0  0  0  0  0
   -3.3037   -4.2221    0.0000 C   0  0  0  0  0  0  0  0  0  0  0  0
   -2.9918   -2.7549    0.0000 S   0  0  0  0  0  0  0  0  0  0  0  0
   -1.5000    0.0000    0.0000 C   0  0  0  0  0  0  0  0  0  0  0  0
   -0.7500    1.2990    0.0000 C   0  0  0  0  0  0  0  0  0  0  0  0
    0.7500    1.2990    0.0000 O   0  0  0  0  0  0  0  0  0  0  0  0
  1  2  1  0
  2  3  1  0
  2  4  1  0
  5  2  1  1
  5  6  1  0
  6  7  1  0
  7  8  1  0
  8  9  2  0
  9 10  1  0
 10 11  1  0
 11 12  2  0
 12 13  1  0
 13 14  2  0
 14 15  1  0
 15 16  2  0
 10 17  2  0
 17 18  1  0
  7 19  1  0
 19 20  1  0
 20 21  1  0
 21  5  1  0
 18  8  1  0
 16 11  1  0
M  END
>  <assay_chembl_id>  (473) 
CHEMBL3374324

>  <assay_description>  (473) 
Inhibition of androgen receptor in human LNCaP cells assessed as inhibition of prostate-specific antigen secretion into media after 3 days

>  <parent_molecule_chembl_id>  (473) 
CHEMBL3323477

>  <canonical_smiles>  (473) 
FC(F)(F)[C@H]1CN(c2nc(-c3ccccc3)cs2)CCO1

>  <standard_type>  (473) 
IC50

>  <standard_relation>  (473) 
=

>  <standard_value>  (473) 
160.0

>  <standard_units>  (473) 
nM

>  <target_pref_name>  (473) 
Androgen Receptor

>  <target_chembl_id>  (473) 
CHEMBL1871

>  <target_organism>  (473) 
Homo sapiens

>  <pchembl_median>  (473) 
5.925

$$$$
CHEMBL3323476
     RDKit          2D

 19 21  0  0  0  0  0  0  0  0999 V2000
    4.5000    0.0000    0.0000 N   0  0  0  0  0  0  0  0  0  0  0  0
    3.0000    0.0000    0.0000 C   0  0  0  0  0  0  0  0  0  0  0  0
    1.5000    0.0000    0.0000 C   0  0  0  0  0  0  0  0  0  0  0  0
    0.7500   -1.2990    0.0000 C   0  0  0  0  0  0  0  0  0  0  0  0
   -0.7500   -1.2990    0.0000 C   0  0  0  0  0  0  0  0  0  0  0  0
   -1.5000    0.0000    0.0000 C   0  0  0  0  0  0  0  0  0  0  0  0
   -3.0000    0.0000    0.0000 C   0  0  0  0  0  0  0  0  0  0  0  0
   -3.8817   -1.2135    0.0000 C   0  0  0  0  0  0  0  0  0  0  0  0
   -5.3083   -0.7500    0.0000 C   0  0  0  0  0  0  0  0  0  0  0  0
   -5.3083    0.7500    0.0000 C   0  0  0  0  0  0  0  0  0  0  0  0
   -6.5218    1.6317    0.0000 N   0  0  0  0  0  0  0  0  0  0  0  0
   -6.3650    3.1235    0.0000 C   0  0  0  0  0  0  0  0  0  0  0  0
   -7.5785    4.0051    0.0000 C   0  0  0  0  0  0  0  0  0  0  0  0
   -8.9488    3.3950    0.0000 O   0  0  0  0  0  0  0  0  0  0  0  0
   -9.1056    1.9033    0.0000 C   0  0  0  0  0  0  0  0  0  0  0  0
   -7.8921    1.0216    0.0000 C   0  0  0  0  0  0  0  0  0  0  0  0
   -3.8817    1.2135    0.0000 S   0  0  0  0  0  0  0  0  0  0  0  0
   -0.7500    1.2990    0.0000 C   0  0  0  0  0  0  0  0  0  0  0  0
    0.7500    1.2990    0.0000 C   0  0  0  0  0  0  0  0  0  0  0  0
  1  2  3  0
  2  3  1  0
  3  4  2  0
  4  5  1  0
  5  6  2  0
  6  7  1  0
  7  8  2  0
  8  9  1  0
  9 10  2  0
 10 11  1  0
 11 12  1  0
 12 13  1  0
 13 14  1  0
 14 15  1  0
 15 16  1  0
 10 17  1  0
  6 18  1  0
 18 19  2  0
 19  3  1  0
 17  7  1  0
 16 11  1  0
M  END
>  <assay_chembl_id>  (474) 
CHEMBL3374324

>  <assay_description>  (474) 
Inhibition of androgen receptor in human LNCaP cells assessed as inhibition of prostate-specific antigen secretion into media after 3 days

>  <parent_molecule_chembl_id>  (474) 
CHEMBL3323476

>  <canonical_smiles>  (474) 
N#Cc1ccc(-c2ccc(N3CCOCC3)s2)cc1

>  <standard_type>  (474) 
IC50

>  <standard_relation>  (474) 
=

>  <standard_value>  (474) 
890.0

>  <standard_units>  (474) 
nM

>  <target_pref_name>  (474) 
Androgen Receptor

>  <target_chembl_id>  (474) 
CHEMBL1871

>  <target_organism>  (474) 
Homo sapiens

>  <pchembl_median>  (474) 
6.02

$$$$
CHEMBL3323475
     RDKit          2D

 18 20  0  0  0  0  0  0  0  0999 V2000
    3.0000    0.0000    0.0000 N   0  0  0  0  0  0  0  0  0  0  0  0
    1.5000    0.0000    0.0000 C   0  0  0  0  0  0  0  0  0  0  0  0
    0.7500   -1.2990    0.0000 C   0  0  0  0  0  0  0  0  0  0  0  0
   -0.7500   -1.2990    0.0000 C   0  0  0  0  0  0  0  0  0  0  0  0
   -1.5000    0.0000    0.0000 C   0  0  0  0  0  0  0  0  0  0  0  0
   -0.7500    1.2990    0.0000 C   0  0  0  0  0  0  0  0  0  0  0  0
    0.7500    1.2990    0.0000 C   0  0  0  0  0  0  0  0  0  0  0  0
    1.5000    2.5981    0.0000 C   0  0  0  0  0  0  0  0  0  0  0  0
    0.8899    3.9684    0.0000 C   0  0  0  0  0  0  0  0  0  0  0  0
    2.0046    4.9721    0.0000 S   0  0  0  0  0  0  0  0  0  0  0  0
    3.3037    4.2221    0.0000 C   0  0  0  0  0  0  0  0  0  0  0  0
    4.6740    4.8322    0.0000 N   0  0  0  0  0  0  0  0  0  0  0  0
    5.8875    3.9505    0.0000 C   0  0  0  0  0  0  0  0  0  0  0  0
    7.2578    4.5606    0.0000 C   0  0  0  0  0  0  0  0  0  0  0  0
    7.4146    6.0524    0.0000 O   0  0  0  0  0  0  0  0  0  0  0  0
    6.2011    6.9341    0.0000 C   0  0  0  0  0  0  0  0  0  0  0  0
    4.8308    6.3240    0.0000 C   0  0  0  0  0  0  0  0  0  0  0  0
    2.9918    2.7549    0.0000 N   0  0  0  0  0  0  0  0  0  0  0  0
  1  2  1  0
  2  3  2  0
  3  4  1  0
  4  5  2  0
  5  6  1  0
  6  7  2  0
  7  8  1  0
  8  9  2  0
  9 10  1  0
 10 11  1  0
 11 12  1  0
 12 13  1  0
 13 14  1  0
 14 15  1  0
 15 16  1  0
 16 17  1  0
 11 18  2  0
  7  2  1  0
 18  8  1  0
 17 12  1  0
M  END
>  <assay_chembl_id>  (475) 
CHEMBL3374324

>  <assay_description>  (475) 
Inhibition of androgen receptor in human LNCaP cells assessed as inhibition of prostate-specific antigen secretion into media after 3 days

>  <parent_molecule_chembl_id>  (475) 
CHEMBL3323475

>  <canonical_smiles>  (475) 
Nc1ccccc1-c1csc(N2CCOCC2)n1

>  <standard_type>  (475) 
IC50

>  <standard_relation>  (475) 
=

>  <standard_value>  (475) 
2030.0

>  <standard_units>  (475) 
nM

>  <target_pref_name>  (475) 
Androgen Receptor

>  <target_chembl_id>  (475) 
CHEMBL1871

>  <target_organism>  (475) 
Homo sapiens

>  <pchembl_median>  (475) 
6.65

$$$$
CHEMBL3323474
     RDKit          2D

 17 19  0  0  0  0  0  0  0  0999 V2000
    1.5000    0.0000    0.0000 C   0  0  0  0  0  0  0  0  0  0  0  0
    0.7500   -1.2990    0.0000 C   0  0  0  0  0  0  0  0  0  0  0  0
   -0.7500   -1.2990    0.0000 C   0  0  0  0  0  0  0  0  0  0  0  0
   -1.5000    0.0000    0.0000 C   0  0  0  0  0  0  0  0  0  0  0  0
   -3.0000    0.0000    0.0000 C   0  0  0  0  0  0  0  0  0  0  0  0
   -3.8817   -1.2135    0.0000 C   0  0  0  0  0  0  0  0  0  0  0  0
   -5.3083   -0.7500    0.0000 C   0  0  0  0  0  0  0  0  0  0  0  0
   -6.5218   -1.6317    0.0000 N   0  0  0  0  0  0  0  0  0  0  0  0
   -7.8921   -1.0216    0.0000 C   0  0  0  0  0  0  0  0  0  0  0  0
   -9.1056   -1.9033    0.0000 C   0  0  0  0  0  0  0  0  0  0  0  0
   -8.9488   -3.3950    0.0000 O   0  0  0  0  0  0  0  0  0  0  0  0
   -7.5785   -4.0051    0.0000 C   0  0  0  0  0  0  0  0  0  0  0  0
   -6.3650   -3.1235    0.0000 C   0  0  0  0  0  0  0  0  0  0  0  0
   -5.3083    0.7500    0.0000 C   0  0  0  0  0  0  0  0  0  0  0  0
   -3.8817    1.2135    0.0000 S   0  0  0  0  0  0  0  0  0  0  0  0
   -0.7500    1.2990    0.0000 C   0  0  0  0  0  0  0  0  0  0  0  0
    0.7500    1.2990    0.0000 C   0  0  0  0  0  0  0  0  0  0  0  0
  1  2  2  0
  2  3  1  0
  3  4  2  0
  4  5  1  0
  5  6  2  0
  6  7  1  0
  7  8  1  0
  8  9  1  0
  9 10  1  0
 10 11  1  0
 11 12  1  0
 12 13  1  0
  7 14  2  0
 14 15  1  0
  4 16  1  0
 16 17  2  0
 17  1  1  0
 15  5  1  0
 13  8  1  0
M  END
>  <assay_chembl_id>  (476) 
CHEMBL3374324

>  <assay_description>  (476) 
Inhibition of androgen receptor in human LNCaP cells assessed as inhibition of prostate-specific antigen secretion into media after 3 days

>  <parent_molecule_chembl_id>  (476) 
CHEMBL3323474

>  <canonical_smiles>  (476) 
c1ccc(-c2cc(N3CCOCC3)cs2)cc1

>  <standard_type>  (476) 
IC50

>  <standard_relation>  (476) 
=

>  <standard_value>  (476) 
840.0

>  <standard_units>  (476) 
nM

>  <target_pref_name>  (476) 
Androgen Receptor

>  <target_chembl_id>  (476) 
CHEMBL1871

>  <target_organism>  (476) 
Homo sapiens

>  <pchembl_median>  (476) 
7.26

$$$$
CHEMBL1416100
     RDKit          2D

 17 19  0  0  0  0  0  0  0  0999 V2000
    1.5000    0.0000    0.0000 C   0  0  0  0  0  0  0  0  0  0  0  0
    0.7500   -1.2990    0.0000 C   0  0  0  0  0  0  0  0  0  0  0  0
   -0.7500   -1.2990    0.0000 C   0  0  0  0  0  0  0  0  0  0  0  0
   -1.5000    0.0000    0.0000 C   0  0  0  0  0  0  0  0  0  0  0  0
   -3.0000    0.0000    0.0000 C   0  0  0  0  0  0  0  0  0  0  0  0
   -3.8817   -1.2135    0.0000 C   0  0  0  0  0  0  0  0  0  0  0  0
   -5.3083   -0.7500    0.0000 S   0  0  0  0  0  0  0  0  0  0  0  0
   -5.3083    0.7500    0.0000 C   0  0  0  0  0  0  0  0  0  0  0  0
   -6.5218    1.6317    0.0000 C   0  0  0  0  0  0  0  0  0  0  0  0
   -6.3650    3.1235    0.0000 C   0  0  0  0  0  0  0  0  0  0  0  0
   -7.5785    4.0051    0.0000 C   0  0  0  0  0  0  0  0  0  0  0  0
   -8.9488    3.3950    0.0000 N   0  0  0  0  0  0  0  0  0  0  0  0
   -9.1056    1.9033    0.0000 C   0  0  0  0  0  0  0  0  0  0  0  0
   -7.8921    1.0216    0.0000 C   0  0  0  0  0  0  0  0  0  0  0  0
   -3.8817    1.2135    0.0000 N   0  0  0  0  0  0  0  0  0  0  0  0
   -0.7500    1.2990    0.0000 C   0  0  0  0  0  0  0  0  0  0  0  0
    0.7500    1.2990    0.0000 C   0  0  0  0  0  0  0  0  0  0  0  0
  1  2  2  0
  2  3  1  0
  3  4  2  0
  4  5  1  0
  5  6  2  0
  6  7  1  0
  7  8  1  0
  8  9  1  0
  9 10  2  0
 10 11  1  0
 11 12  2  0
 12 13  1  0
 13 14  2  0
  8 15  2  0
  4 16  1  0
 16 17  2  0
 17  1  1  0
 15  5  1  0
 14  9  1  0
M  END
>  <assay_chembl_id>  (477) 
CHEMBL3374324

>  <assay_description>  (477) 
Inhibition of androgen receptor in human LNCaP cells assessed as inhibition of prostate-specific antigen secretion into media after 3 days

>  <parent_molecule_chembl_id>  (477) 
CHEMBL1416100

>  <canonical_smiles>  (477) 
c1ccc(-c2csc(-c3ccncc3)n2)cc1

>  <standard_type>  (477) 
IC50

>  <standard_relation>  (477) 
=

>  <standard_value>  (477) 
630.0

>  <standard_units>  (477) 
nM

>  <target_pref_name>  (477) 
Androgen Receptor

>  <target_chembl_id>  (477) 
CHEMBL1871

>  <target_organism>  (477) 
Homo sapiens

>  <pchembl_median>  (477) 
7.37

$$$$
CHEMBL3323473
     RDKit          2D

 17 19  0  0  0  0  0  0  0  0999 V2000
    1.5000    0.0000    0.0000 C   0  0  0  0  0  0  0  0  0  0  0  0
    0.7500   -1.2990    0.0000 C   0  0  0  0  0  0  0  0  0  0  0  0
   -0.7500   -1.2990    0.0000 C   0  0  0  0  0  0  0  0  0  0  0  0
   -1.5000    0.0000    0.0000 C   0  0  0  0  0  0  0  0  0  0  0  0
   -3.0000    0.0000    0.0000 C   0  0  0  0  0  0  0  0  0  0  0  0
   -3.8817   -1.2135    0.0000 C   0  0  0  0  0  0  0  0  0  0  0  0
   -5.3083   -0.7500    0.0000 S   0  0  0  0  0  0  0  0  0  0  0  0
   -5.3083    0.7500    0.0000 C   0  0  0  0  0  0  0  0  0  0  0  0
   -6.5218    1.6317    0.0000 N   0  0  0  0  0  0  0  0  0  0  0  0
   -6.3650    3.1235    0.0000 C   0  0  0  0  0  0  0  0  0  0  0  0
   -7.5785    4.0051    0.0000 C   0  0  0  0  0  0  0  0  0  0  0  0
   -8.9488    3.3950    0.0000 C   0  0  0  0  0  0  0  0  0  0  0  0
   -9.1056    1.9033    0.0000 C   0  0  0  0  0  0  0  0  0  0  0  0
   -7.8921    1.0216    0.0000 C   0  0  0  0  0  0  0  0  0  0  0  0
   -3.8817    1.2135    0.0000 N   0  0  0  0  0  0  0  0  0  0  0  0
   -0.7500    1.2990    0.0000 C   0  0  0  0  0  0  0  0  0  0  0  0
    0.7500    1.2990    0.0000 C   0  0  0  0  0  0  0  0  0  0  0  0
  1  2  2  0
  2  3  1  0
  3  4  2  0
  4  5  1  0
  5  6  2  0
  6  7  1  0
  7  8  1  0
  8  9  1  0
  9 10  1  0
 10 11  1  0
 11 12  1  0
 12 13  1  0
 13 14  1  0
  8 15  2  0
  4 16  1  0
 16 17  2  0
 17  1  1  0
 15  5  1  0
 14  9  1  0
M  END
>  <assay_chembl_id>  (478) 
CHEMBL3374324

>  <assay_description>  (478) 
Inhibition of androgen receptor in human LNCaP cells assessed as inhibition of prostate-specific antigen secretion into media after 3 days

>  <parent_molecule_chembl_id>  (478) 
CHEMBL3323473

>  <canonical_smiles>  (478) 
c1ccc(-c2csc(N3CCCCC3)n2)cc1

>  <standard_type>  (478) 
IC50

>  <standard_relation>  (478) 
=

>  <standard_value>  (478) 
690.0

>  <standard_units>  (478) 
nM

>  <target_pref_name>  (478) 
Androgen Receptor

>  <target_chembl_id>  (478) 
CHEMBL1871

>  <target_organism>  (478) 
Homo sapiens

>  <pchembl_median>  (478) 
5.865

$$$$
CHEMBL1391700
     RDKit          2D

 18 20  0  0  0  0  0  0  0  0999 V2000
    3.0000    0.0000    0.0000 F   0  0  0  0  0  0  0  0  0  0  0  0
    1.5000    0.0000    0.0000 C   0  0  0  0  0  0  0  0  0  0  0  0
    0.7500   -1.2990    0.0000 C   0  0  0  0  0  0  0  0  0  0  0  0
   -0.7500   -1.2990    0.0000 C   0  0  0  0  0  0  0  0  0  0  0  0
   -1.5000    0.0000    0.0000 C   0  0  0  0  0  0  0  0  0  0  0  0
   -3.0000    0.0000    0.0000 C   0  0  0  0  0  0  0  0  0  0  0  0
   -3.8817   -1.2135    0.0000 C   0  0  0  0  0  0  0  0  0  0  0  0
   -5.3083   -0.7500    0.0000 S   0  0  0  0  0  0  0  0  0  0  0  0
   -5.3083    0.7500    0.0000 C   0  0  0  0  0  0  0  0  0  0  0  0
   -6.5218    1.6317    0.0000 N   0  0  0  0  0  0  0  0  0  0  0  0
   -6.3650    3.1235    0.0000 C   0  0  0  0  0  0  0  0  0  0  0  0
   -7.5785    4.0051    0.0000 C   0  0  0  0  0  0  0  0  0  0  0  0
   -8.9488    3.3950    0.0000 O   0  0  0  0  0  0  0  0  0  0  0  0
   -9.1056    1.9033    0.0000 C   0  0  0  0  0  0  0  0  0  0  0  0
   -7.8921    1.0216    0.0000 C   0  0  0  0  0  0  0  0  0  0  0  0
   -3.8817    1.2135    0.0000 N   0  0  0  0  0  0  0  0  0  0  0  0
   -0.7500    1.2990    0.0000 C   0  0  0  0  0  0  0  0  0  0  0  0
    0.7500    1.2990    0.0000 C   0  0  0  0  0  0  0  0  0  0  0  0
  1  2  1  0
  2  3  2  0
  3  4  1  0
  4  5  2  0
  5  6  1  0
  6  7  2  0
  7  8  1  0
  8  9  1  0
  9 10  1  0
 10 11  1  0
 11 12  1  0
 12 13  1  0
 13 14  1  0
 14 15  1  0
  9 16  2  0
  5 17  1  0
 17 18  2  0
 18  2  1  0
 16  6  1  0
 15 10  1  0
M  END
>  <assay_chembl_id>  (479) 
CHEMBL3374324

>  <assay_description>  (479) 
Inhibition of androgen receptor in human LNCaP cells assessed as inhibition of prostate-specific antigen secretion into media after 3 days

>  <parent_molecule_chembl_id>  (479) 
CHEMBL1391700

>  <canonical_smiles>  (479) 
Fc1ccc(-c2csc(N3CCOCC3)n2)cc1

>  <standard_type>  (479) 
IC50

>  <standard_relation>  (479) 
=

>  <standard_value>  (479) 
410.0

>  <standard_units>  (479) 
nM

>  <target_pref_name>  (479) 
Androgen Receptor

>  <target_chembl_id>  (479) 
CHEMBL1871

>  <target_organism>  (479) 
Homo sapiens

>  <pchembl_median>  (479) 
7.52

$$$$
CHEMBL3323472
     RDKit          2D

 19 21  0  0  0  0  0  0  0  0999 V2000
    3.0000    0.0000    0.0000 C   0  0  0  0  0  0  0  0  0  0  0  0
    1.5000    0.0000    0.0000 C   0  0  0  0  0  0  0  0  0  0  0  0
    0.7500   -1.2990    0.0000 C   0  0  0  0  0  0  0  0  0  0  0  0
   -0.7500   -1.2990    0.0000 C   0  0  0  0  0  0  0  0  0  0  0  0
   -1.5000    0.0000    0.0000 C   0  0  0  0  0  0  0  0  0  0  0  0
   -3.0000    0.0000    0.0000 C   0  0  0  0  0  0  0  0  0  0  0  0
   -0.7500    1.2990    0.0000 C   0  0  0  0  0  0  0  0  0  0  0  0
   -1.5000    2.5981    0.0000 C   0  0  0  0  0  0  0  0  0  0  0  0
   -2.9918    2.7549    0.0000 C   0  0  0  0  0  0  0  0  0  0  0  0
   -3.3037    4.2221    0.0000 S   0  0  0  0  0  0  0  0  0  0  0  0
   -2.0046    4.9721    0.0000 C   0  0  0  0  0  0  0  0  0  0  0  0
   -1.8478    6.4639    0.0000 N   0  0  0  0  0  0  0  0  0  0  0  0
   -0.4775    7.0740    0.0000 C   0  0  0  0  0  0  0  0  0  0  0  0
   -0.3207    8.5658    0.0000 C   0  0  0  0  0  0  0  0  0  0  0  0
   -1.5342    9.4474    0.0000 O   0  0  0  0  0  0  0  0  0  0  0  0
   -2.9046    8.8373    0.0000 C   0  0  0  0  0  0  0  0  0  0  0  0
   -3.0613    7.3456    0.0000 C   0  0  0  0  0  0  0  0  0  0  0  0
   -0.8899    3.9684    0.0000 N   0  0  0  0  0  0  0  0  0  0  0  0
    0.7500    1.2990    0.0000 C   0  0  0  0  0  0  0  0  0  0  0  0
  1  2  1  0
  2  3  2  0
  3  4  1  0
  4  5  2  0
  5  6  1  0
  5  7  1  0
  7  8  1  0
  8  9  2  0
  9 10  1  0
 10 11  1  0
 11 12  1  0
 12 13  1  0
 13 14  1  0
 14 15  1  0
 15 16  1  0
 16 17  1  0
 11 18  2  0
  7 19  2  0
 19  2  1  0
 18  8  1  0
 17 12  1  0
M  END
>  <assay_chembl_id>  (480) 
CHEMBL3374324

>  <assay_description>  (480) 
Inhibition of androgen receptor in human LNCaP cells assessed as inhibition of prostate-specific antigen secretion into media after 3 days

>  <parent_molecule_chembl_id>  (480) 
CHEMBL3323472

>  <canonical_smiles>  (480) 
Cc1ccc(C)c(-c2csc(N3CCOCC3)n2)c1

>  <standard_type>  (480) 
IC50

>  <standard_relation>  (480) 
=

>  <standard_value>  (480) 
520.0

>  <standard_units>  (480) 
nM

>  <target_pref_name>  (480) 
Androgen Receptor

>  <target_chembl_id>  (480) 
CHEMBL1871

>  <target_organism>  (480) 
Homo sapiens

>  <pchembl_median>  (480) 
6.28

$$$$
CHEMBL3323471
     RDKit          2D

 21 23  0  0  0  0  0  0  0  0999 V2000
    4.5000    0.0000    0.0000 F   0  0  0  0  0  0  0  0  0  0  0  0
    3.0000    0.0000    0.0000 C   0  0  0  0  0  0  0  0  0  0  0  0
    3.0000   -1.5000    0.0000 F   0  0  0  0  0  0  0  0  0  0  0  0
    3.0000    1.5000    0.0000 F   0  0  0  0  0  0  0  0  0  0  0  0
    1.5000    0.0000    0.0000 C   0  0  0  0  0  0  0  0  0  0  0  0
    0.7500   -1.2990    0.0000 C   0  0  0  0  0  0  0  0  0  0  0  0
   -0.7500   -1.2990    0.0000 C   0  0  0  0  0  0  0  0  0  0  0  0
   -1.5000    0.0000    0.0000 C   0  0  0  0  0  0  0  0  0  0  0  0
   -0.7500    1.2990    0.0000 C   0  0  0  0  0  0  0  0  0  0  0  0
   -1.5000    2.5981    0.0000 C   0  0  0  0  0  0  0  0  0  0  0  0
   -2.9918    2.7549    0.0000 C   0  0  0  0  0  0  0  0  0  0  0  0
   -3.3037    4.2221    0.0000 S   0  0  0  0  0  0  0  0  0  0  0  0
   -2.0046    4.9721    0.0000 C   0  0  0  0  0  0  0  0  0  0  0  0
   -1.8478    6.4639    0.0000 N   0  0  0  0  0  0  0  0  0  0  0  0
   -0.4775    7.0740    0.0000 C   0  0  0  0  0  0  0  0  0  0  0  0
   -0.3207    8.5658    0.0000 C   0  0  0  0  0  0  0  0  0  0  0  0
   -1.5342    9.4474    0.0000 O   0  0  0  0  0  0  0  0  0  0  0  0
   -2.9046    8.8373    0.0000 C   0  0  0  0  0  0  0  0  0  0  0  0
   -3.0613    7.3456    0.0000 C   0  0  0  0  0  0  0  0  0  0  0  0
   -0.8899    3.9684    0.0000 N   0  0  0  0  0  0  0  0  0  0  0  0
    0.7500    1.2990    0.0000 C   0  0  0  0  0  0  0  0  0  0  0  0
  1  2  1  0
  2  3  1  0
  2  4  1  0
  2  5  1  0
  5  6  2  0
  6  7  1  0
  7  8  2  0
  8  9  1  0
  9 10  1  0
 10 11  2  0
 11 12  1  0
 12 13  1  0
 13 14  1  0
 14 15  1  0
 15 16  1  0
 16 17  1  0
 17 18  1  0
 18 19  1  0
 13 20  2  0
  9 21  2  0
 21  5  1  0
 20 10  1  0
 19 14  1  0
M  END
>  <assay_chembl_id>  (481) 
CHEMBL3374324

>  <assay_description>  (481) 
Inhibition of androgen receptor in human LNCaP cells assessed as inhibition of prostate-specific antigen secretion into media after 3 days

>  <parent_molecule_chembl_id>  (481) 
CHEMBL3323471

>  <canonical_smiles>  (481) 
FC(F)(F)c1cccc(-c2csc(N3CCOCC3)n2)c1

>  <standard_type>  (481) 
IC50

>  <standard_relation>  (481) 
=

>  <standard_value>  (481) 
580.0

>  <standard_units>  (481) 
nM

>  <target_pref_name>  (481) 
Androgen Receptor

>  <target_chembl_id>  (481) 
CHEMBL1871

>  <target_organism>  (481) 
Homo sapiens

>  <pchembl_median>  (481) 
7.24

$$$$
CHEMBL3323470
     RDKit          2D

 17 19  0  0  0  0  0  0  0  0999 V2000
    1.5000    0.0000    0.0000 C   0  0  0  0  0  0  0  0  0  0  0  0
    0.7500   -1.2990    0.0000 C   0  0  0  0  0  0  0  0  0  0  0  0
   -0.7500   -1.2990    0.0000 C   0  0  0  0  0  0  0  0  0  0  0  0
   -1.5000    0.0000    0.0000 C   0  0  0  0  0  0  0  0  0  0  0  0
   -3.0000    0.0000    0.0000 C   0  0  0  0  0  0  0  0  0  0  0  0
   -3.8817   -1.2135    0.0000 C   0  0  0  0  0  0  0  0  0  0  0  0
   -5.3083   -0.7500    0.0000 C   0  0  0  0  0  0  0  0  0  0  0  0
   -5.3083    0.7500    0.0000 C   0  0  0  0  0  0  0  0  0  0  0  0
   -6.5218    1.6317    0.0000 N   0  0  0  0  0  0  0  0  0  0  0  0
   -6.3650    3.1235    0.0000 C   0  0  0  0  0  0  0  0  0  0  0  0
   -7.5785    4.0051    0.0000 C   0  0  0  0  0  0  0  0  0  0  0  0
   -8.9488    3.3950    0.0000 O   0  0  0  0  0  0  0  0  0  0  0  0
   -9.1056    1.9033    0.0000 C   0  0  0  0  0  0  0  0  0  0  0  0
   -7.8921    1.0216    0.0000 C   0  0  0  0  0  0  0  0  0  0  0  0
   -3.8817    1.2135    0.0000 S   0  0  0  0  0  0  0  0  0  0  0  0
   -0.7500    1.2990    0.0000 C   0  0  0  0  0  0  0  0  0  0  0  0
    0.7500    1.2990    0.0000 C   0  0  0  0  0  0  0  0  0  0  0  0
  1  2  2  0
  2  3  1  0
  3  4  2  0
  4  5  1  0
  5  6  2  0
  6  7  1  0
  7  8  2  0
  8  9  1  0
  9 10  1  0
 10 11  1  0
 11 12  1  0
 12 13  1  0
 13 14  1  0
  8 15  1  0
  4 16  1  0
 16 17  2  0
 17  1  1  0
 15  5  1  0
 14  9  1  0
M  END
>  <assay_chembl_id>  (482) 
CHEMBL3374324

>  <assay_description>  (482) 
Inhibition of androgen receptor in human LNCaP cells assessed as inhibition of prostate-specific antigen secretion into media after 3 days

>  <parent_molecule_chembl_id>  (482) 
CHEMBL3323470

>  <canonical_smiles>  (482) 
c1ccc(-c2ccc(N3CCOCC3)s2)cc1

>  <standard_type>  (482) 
IC50

>  <standard_relation>  (482) 
=

>  <standard_value>  (482) 
510.0

>  <standard_units>  (482) 
nM

>  <target_pref_name>  (482) 
Androgen Receptor

>  <target_chembl_id>  (482) 
CHEMBL1871

>  <target_organism>  (482) 
Homo sapiens

>  <pchembl_median>  (482) 
6.96

$$$$
CHEMBL1623389
     RDKit          2D

 17 19  0  0  0  0  0  0  0  0999 V2000
    1.5000    0.0000    0.0000 C   0  0  0  0  0  0  0  0  0  0  0  0
    0.7500   -1.2990    0.0000 C   0  0  0  0  0  0  0  0  0  0  0  0
   -0.7500   -1.2990    0.0000 C   0  0  0  0  0  0  0  0  0  0  0  0
   -1.5000    0.0000    0.0000 C   0  0  0  0  0  0  0  0  0  0  0  0
   -3.0000    0.0000    0.0000 C   0  0  0  0  0  0  0  0  0  0  0  0
   -3.8817   -1.2135    0.0000 C   0  0  0  0  0  0  0  0  0  0  0  0
   -5.3083   -0.7500    0.0000 S   0  0  0  0  0  0  0  0  0  0  0  0
   -5.3083    0.7500    0.0000 C   0  0  0  0  0  0  0  0  0  0  0  0
   -6.5218    1.6317    0.0000 N   0  0  0  0  0  0  0  0  0  0  0  0
   -6.3650    3.1235    0.0000 C   0  0  0  0  0  0  0  0  0  0  0  0
   -7.5785    4.0051    0.0000 C   0  0  0  0  0  0  0  0  0  0  0  0
   -8.9488    3.3950    0.0000 O   0  0  0  0  0  0  0  0  0  0  0  0
   -9.1056    1.9033    0.0000 C   0  0  0  0  0  0  0  0  0  0  0  0
   -7.8921    1.0216    0.0000 C   0  0  0  0  0  0  0  0  0  0  0  0
   -3.8817    1.2135    0.0000 N   0  0  0  0  0  0  0  0  0  0  0  0
   -0.7500    1.2990    0.0000 C   0  0  0  0  0  0  0  0  0  0  0  0
    0.7500    1.2990    0.0000 C   0  0  0  0  0  0  0  0  0  0  0  0
  1  2  2  0
  2  3  1  0
  3  4  2  0
  4  5  1  0
  5  6  2  0
  6  7  1  0
  7  8  1  0
  8  9  1  0
  9 10  1  0
 10 11  1  0
 11 12  1  0
 12 13  1  0
 13 14  1  0
  8 15  2  0
  4 16  1  0
 16 17  2  0
 17  1  1  0
 15  5  1  0
 14  9  1  0
M  END
>  <assay_chembl_id>  (483) 
CHEMBL3374324

>  <assay_description>  (483) 
Inhibition of androgen receptor in human LNCaP cells assessed as inhibition of prostate-specific antigen secretion into media after 3 days

>  <parent_molecule_chembl_id>  (483) 
CHEMBL1623389

>  <canonical_smiles>  (483) 
c1ccc(-c2csc(N3CCOCC3)n2)cc1

>  <standard_type>  (483) 
IC50

>  <standard_relation>  (483) 
=

>  <standard_value>  (483) 
280.0

>  <standard_units>  (483) 
nM

>  <target_pref_name>  (483) 
Androgen Receptor

>  <target_chembl_id>  (483) 
CHEMBL1871

>  <target_organism>  (483) 
Homo sapiens

>  <pchembl_median>  (483) 
6.65

$$$$
CHEMBL1372017
     RDKit          2D

 16 18  0  0  0  0  0  0  0  0999 V2000
   -1.8478   -9.0619    0.0000 N   0  0  0  0  0  0  0  0  0  0  0  0
   -2.0046   -7.5702    0.0000 C   0  0  0  0  0  0  0  0  0  0  0  0
   -0.8899   -6.5665    0.0000 N   0  0  0  0  0  0  0  0  0  0  0  0
   -1.5000   -5.1962    0.0000 C   0  0  0  0  0  0  0  0  0  0  0  0
   -0.7500   -3.8971    0.0000 C   0  0  0  0  0  0  0  0  0  0  0  0
    0.7500   -3.8971    0.0000 C   0  0  0  0  0  0  0  0  0  0  0  0
    1.5000   -2.5981    0.0000 C   0  0  0  0  0  0  0  0  0  0  0  0
    0.7500   -1.2990    0.0000 C   0  0  0  0  0  0  0  0  0  0  0  0
    1.5000    0.0000    0.0000 C   0  0  0  0  0  0  0  0  0  0  0  0
    0.7500    1.2990    0.0000 C   0  0  0  0  0  0  0  0  0  0  0  0
   -0.7500    1.2990    0.0000 C   0  0  0  0  0  0  0  0  0  0  0  0
   -1.5000    0.0000    0.0000 C   0  0  0  0  0  0  0  0  0  0  0  0
   -0.7500   -1.2990    0.0000 C   0  0  0  0  0  0  0  0  0  0  0  0
   -1.5000   -2.5981    0.0000 C   0  0  0  0  0  0  0  0  0  0  0  0
   -2.9918   -5.3529    0.0000 C   0  0  0  0  0  0  0  0  0  0  0  0
   -3.3037   -6.8202    0.0000 S   0  0  0  0  0  0  0  0  0  0  0  0
  1  2  1  0
  2  3  2  0
  3  4  1  0
  4  5  1  0
  5  6  2  0
  6  7  1  0
  7  8  2  0
  8  9  1  0
  9 10  2  0
 10 11  1  0
 11 12  2  0
 12 13  1  0
 13 14  2  0
  4 15  2  0
 15 16  1  0
 16  2  1  0
 14  5  1  0
 13  8  1  0
M  END
>  <assay_chembl_id>  (484) 
CHEMBL3374324

>  <assay_description>  (484) 
Inhibition of androgen receptor in human LNCaP cells assessed as inhibition of prostate-specific antigen secretion into media after 3 days

>  <parent_molecule_chembl_id>  (484) 
CHEMBL1372017

>  <canonical_smiles>  (484) 
Nc1nc(-c2ccc3ccccc3c2)cs1

>  <standard_type>  (484) 
IC50

>  <standard_relation>  (484) 
=

>  <standard_value>  (484) 
10600.0

>  <standard_units>  (484) 
nM

>  <target_pref_name>  (484) 
Androgen Receptor

>  <target_chembl_id>  (484) 
CHEMBL1871

>  <target_organism>  (484) 
Homo sapiens

>  <pchembl_median>  (484) 
5.13

$$$$
CHEMBL3323468
     RDKit          2D

 16 18  0  0  0  0  0  0  0  0999 V2000
    3.0000    0.0000    0.0000 O   0  0  0  0  0  0  0  0  0  0  0  0
    1.5000    0.0000    0.0000 C   0  0  0  0  0  0  0  0  0  0  0  0
    0.7500   -1.2990    0.0000 C   0  0  0  0  0  0  0  0  0  0  0  0
   -0.7500   -1.2990    0.0000 C   0  0  0  0  0  0  0  0  0  0  0  0
   -1.5000    0.0000    0.0000 C   0  0  0  0  0  0  0  0  0  0  0  0
   -2.9672    0.3119    0.0000 N   0  0  0  0  0  0  0  0  0  0  0  0
   -3.1240    1.8037    0.0000 C   0  0  0  0  0  0  0  0  0  0  0  0
   -4.4231    2.5537    0.0000 N   0  0  0  0  0  0  0  0  0  0  0  0
   -4.4231    4.0537    0.0000 C   0  0  0  0  0  0  0  0  0  0  0  0
   -5.7221    4.8037    0.0000 C   0  0  0  0  0  0  0  0  0  0  0  0
   -7.0211    4.0537    0.0000 O   0  0  0  0  0  0  0  0  0  0  0  0
   -7.0211    2.5537    0.0000 C   0  0  0  0  0  0  0  0  0  0  0  0
   -5.7221    1.8037    0.0000 C   0  0  0  0  0  0  0  0  0  0  0  0
   -1.7537    2.4138    0.0000 S   0  0  0  0  0  0  0  0  0  0  0  0
   -0.7500    1.2990    0.0000 C   0  0  0  0  0  0  0  0  0  0  0  0
    0.7500    1.2990    0.0000 C   0  0  0  0  0  0  0  0  0  0  0  0
  1  2  1  0
  2  3  2  0
  3  4  1  0
  4  5  2  0
  5  6  1  0
  6  7  2  0
  7  8  1  0
  8  9  1  0
  9 10  1  0
 10 11  1  0
 11 12  1  0
 12 13  1  0
  7 14  1  0
 14 15  1  0
 15 16  2  0
 16  2  1  0
 15  5  1  0
 13  8  1  0
M  END
>  <assay_chembl_id>  (485) 
CHEMBL3374324

>  <assay_description>  (485) 
Inhibition of androgen receptor in human LNCaP cells assessed as inhibition of prostate-specific antigen secretion into media after 3 days

>  <parent_molecule_chembl_id>  (485) 
CHEMBL3323468

>  <canonical_smiles>  (485) 
Oc1ccc2nc(N3CCOCC3)sc2c1

>  <standard_type>  (485) 
IC50

>  <standard_relation>  (485) 
=

>  <standard_value>  (485) 
8080.0

>  <standard_units>  (485) 
nM

>  <target_pref_name>  (485) 
Androgen Receptor

>  <target_chembl_id>  (485) 
CHEMBL1871

>  <target_organism>  (485) 
Homo sapiens

>  <pchembl_median>  (485) 
6.42

$$$$
CHEMBL452153
     RDKit          2D

 16 18  0  0  0  0  0  0  0  0999 V2000
    1.5000    0.0000    0.0000 C   0  0  0  0  0  0  0  0  0  0  0  0
    0.7500   -1.2990    0.0000 C   0  0  0  0  0  0  0  0  0  0  0  0
   -0.7500   -1.2990    0.0000 C   0  0  0  0  0  0  0  0  0  0  0  0
   -1.5000    0.0000    0.0000 C   0  0  0  0  0  0  0  0  0  0  0  0
   -3.0000    0.0000    0.0000 N   0  0  0  0  0  0  0  0  0  0  0  0
   -3.7500    1.2990    0.0000 C   0  0  0  0  0  0  0  0  0  0  0  0
   -5.2500    1.2990    0.0000 C   0  0  0  0  0  0  0  0  0  0  0  0
   -6.0000    2.5981    0.0000 C   0  0  0  0  0  0  0  0  0  0  0  0
   -7.5000    2.5981    0.0000 C   0  0  0  0  0  0  0  0  0  0  0  0
   -8.2500    1.2990    0.0000 N   0  0  0  0  0  0  0  0  0  0  0  0
   -7.5000    0.0000    0.0000 C   0  0  0  0  0  0  0  0  0  0  0  0
   -6.0000    0.0000    0.0000 C   0  0  0  0  0  0  0  0  0  0  0  0
   -3.0000    2.5981    0.0000 C   0  0  0  0  0  0  0  0  0  0  0  0
   -1.5000    2.5981    0.0000 C   0  0  0  0  0  0  0  0  0  0  0  0
   -0.7500    1.2990    0.0000 C   0  0  0  0  0  0  0  0  0  0  0  0
    0.7500    1.2990    0.0000 C   0  0  0  0  0  0  0  0  0  0  0  0
  1  2  2  0
  2  3  1  0
  3  4  2  0
  4  5  1  0
  5  6  2  0
  6  7  1  0
  7  8  2  0
  8  9  1  0
  9 10  2  0
 10 11  1  0
 11 12  2  0
  6 13  1  0
 13 14  2  0
 14 15  1  0
 15 16  2  0
 16  1  1  0
 15  4  1  0
 12  7  1  0
M  END
>  <assay_chembl_id>  (486) 
CHEMBL3374324

>  <assay_description>  (486) 
Inhibition of androgen receptor in human LNCaP cells assessed as inhibition of prostate-specific antigen secretion into media after 3 days

>  <parent_molecule_chembl_id>  (486) 
CHEMBL452153

>  <canonical_smiles>  (486) 
c1ccc2nc(-c3ccncc3)ccc2c1

>  <standard_type>  (486) 
IC50

>  <standard_relation>  (486) 
=

>  <standard_value>  (486) 
2260.0

>  <standard_units>  (486) 
nM

>  <target_pref_name>  (486) 
Androgen Receptor

>  <target_chembl_id>  (486) 
CHEMBL1871

>  <target_organism>  (486) 
Homo sapiens

>  <pchembl_median>  (486) 
6.53

$$$$
CHEMBL3323467
     RDKit          2D

 17 19  0  0  0  0  0  0  0  0999 V2000
   -3.0613   -9.9436    0.0000 C   0  0  0  0  0  0  0  0  0  0  0  0
   -1.8478   -9.0619    0.0000 N   0  0  0  0  0  0  0  0  0  0  0  0
   -2.0046   -7.5702    0.0000 C   0  0  0  0  0  0  0  0  0  0  0  0
   -0.8899   -6.5665    0.0000 N   0  0  0  0  0  0  0  0  0  0  0  0
   -1.5000   -5.1962    0.0000 C   0  0  0  0  0  0  0  0  0  0  0  0
   -0.7500   -3.8971    0.0000 C   0  0  0  0  0  0  0  0  0  0  0  0
    0.7500   -3.8971    0.0000 C   0  0  0  0  0  0  0  0  0  0  0  0
    1.5000   -2.5981    0.0000 C   0  0  0  0  0  0  0  0  0  0  0  0
    0.7500   -1.2990    0.0000 C   0  0  0  0  0  0  0  0  0  0  0  0
    1.5000    0.0000    0.0000 C   0  0  0  0  0  0  0  0  0  0  0  0
    0.7500    1.2990    0.0000 C   0  0  0  0  0  0  0  0  0  0  0  0
   -0.7500    1.2990    0.0000 C   0  0  0  0  0  0  0  0  0  0  0  0
   -1.5000    0.0000    0.0000 C   0  0  0  0  0  0  0  0  0  0  0  0
   -0.7500   -1.2990    0.0000 C   0  0  0  0  0  0  0  0  0  0  0  0
   -1.5000   -2.5981    0.0000 C   0  0  0  0  0  0  0  0  0  0  0  0
   -2.9918   -5.3529    0.0000 C   0  0  0  0  0  0  0  0  0  0  0  0
   -3.3037   -6.8202    0.0000 S   0  0  0  0  0  0  0  0  0  0  0  0
  1  2  1  0
  2  3  1  0
  3  4  2  0
  4  5  1  0
  5  6  1  0
  6  7  2  0
  7  8  1  0
  8  9  2  0
  9 10  1  0
 10 11  2  0
 11 12  1  0
 12 13  2  0
 13 14  1  0
 14 15  2  0
  5 16  2  0
 16 17  1  0
 17  3  1  0
 15  6  1  0
 14  9  1  0
M  END
>  <assay_chembl_id>  (487) 
CHEMBL3374324

>  <assay_description>  (487) 
Inhibition of androgen receptor in human LNCaP cells assessed as inhibition of prostate-specific antigen secretion into media after 3 days

>  <parent_molecule_chembl_id>  (487) 
CHEMBL3323467

>  <canonical_smiles>  (487) 
CNc1nc(-c2ccc3ccccc3c2)cs1

>  <standard_type>  (487) 
IC50

>  <standard_relation>  (487) 
=

>  <standard_value>  (487) 
3910.0

>  <standard_units>  (487) 
nM

>  <target_pref_name>  (487) 
Androgen Receptor

>  <target_chembl_id>  (487) 
CHEMBL1871

>  <target_organism>  (487) 
Homo sapiens

>  <pchembl_median>  (487) 
7.17

$$$$
CHEMBL3323503
     RDKit          2D

 18 20  0  0  0  0  0  0  0  0999 V2000
    4.6740   -4.8322    0.0000 C   0  0  0  0  0  0  0  0  0  0  0  0
    3.3037   -4.2221    0.0000 C   0  0  0  0  0  0  0  0  0  0  0  0
    2.9918   -2.7549    0.0000 S   0  0  0  0  0  0  0  0  0  0  0  0
    1.5000   -2.5981    0.0000 C   0  0  0  0  0  0  0  0  0  0  0  0
    0.7500   -1.2990    0.0000 N   0  0  0  0  0  0  0  0  0  0  0  0
    1.5000    0.0000    0.0000 C   0  0  0  0  0  0  0  0  0  0  0  0
    0.7500    1.2990    0.0000 C   0  0  0  0  0  0  0  0  0  0  0  0
   -0.7500    1.2990    0.0000 O   0  0  0  0  0  0  0  0  0  0  0  0
   -1.5000    0.0000    0.0000 C   0  0  0  0  0  0  0  0  0  0  0  0
   -0.7500   -1.2990    0.0000 C   0  0  0  0  0  0  0  0  0  0  0  0
    0.8899   -3.9684    0.0000 N   0  0  0  0  0  0  0  0  0  0  0  0
    2.0046   -4.9721    0.0000 C   0  0  0  0  0  0  0  0  0  0  0  0
    1.8478   -6.4639    0.0000 C   0  0  0  0  0  0  0  0  0  0  0  0
    0.4775   -7.0740    0.0000 C   0  0  0  0  0  0  0  0  0  0  0  0
    0.3207   -8.5658    0.0000 C   0  0  0  0  0  0  0  0  0  0  0  0
    1.5342   -9.4474    0.0000 C   0  0  0  0  0  0  0  0  0  0  0  0
    2.9046   -8.8373    0.0000 C   0  0  0  0  0  0  0  0  0  0  0  0
    3.0613   -7.3456    0.0000 C   0  0  0  0  0  0  0  0  0  0  0  0
  1  2  1  0
  2  3  1  0
  3  4  1  0
  4  5  1  0
  5  6  1  0
  6  7  1  0
  7  8  1  0
  8  9  1  0
  9 10  1  0
  4 11  2  0
 11 12  1  0
 12 13  1  0
 13 14  2  0
 14 15  1  0
 15 16  2  0
 16 17  1  0
 17 18  2  0
 12  2  2  0
 18 13  1  0
 10  5  1  0
M  END
>  <assay_chembl_id>  (488) 
CHEMBL3374323

>  <assay_description>  (488) 
Inhibition of androgen receptor transcriptional activity in human LNCaP cells after 3 days by eGFP assay

>  <parent_molecule_chembl_id>  (488) 
CHEMBL3323503

>  <canonical_smiles>  (488) 
Cc1sc(N2CCOCC2)nc1-c1ccccc1

>  <standard_type>  (488) 
IC50

>  <standard_relation>  (488) 
=

>  <standard_value>  (488) 
1460.0

>  <standard_units>  (488) 
nM

>  <target_pref_name>  (488) 
Androgen Receptor

>  <target_chembl_id>  (488) 
CHEMBL1871

>  <target_organism>  (488) 
Homo sapiens

>  <pchembl_median>  (488) 
6.6

$$$$
CHEMBL3323501
     RDKit          2D

 22 24  0  0  0  0  0  0  0  0999 V2000
    4.5000    0.0000    0.0000 C   0  0  0  0  0  0  0  0  0  0  0  0
    3.0000    0.0000    0.0000 S   0  0  0  0  0  0  0  0  0  0  0  0
    3.0000    1.5000    0.0000 O   0  0  0  0  0  0  0  0  0  0  0  0
    3.0000   -1.5000    0.0000 O   0  0  0  0  0  0  0  0  0  0  0  0
    1.5000    0.0000    0.0000 C   0  0  0  0  0  0  0  0  0  0  0  0
    0.7500   -1.2990    0.0000 C   0  0  0  0  0  0  0  0  0  0  0  0
    1.5000   -2.5981    0.0000 F   0  0  0  0  0  0  0  0  0  0  0  0
   -0.7500   -1.2990    0.0000 C   0  0  0  0  0  0  0  0  0  0  0  0
   -1.5000    0.0000    0.0000 C   0  0  0  0  0  0  0  0  0  0  0  0
   -0.7500    1.2990    0.0000 C   0  0  0  0  0  0  0  0  0  0  0  0
    0.7500    1.2990    0.0000 C   0  0  0  0  0  0  0  0  0  0  0  0
    1.5000    2.5981    0.0000 C   0  0  0  0  0  0  0  0  0  0  0  0
    0.8899    3.9684    0.0000 C   0  0  0  0  0  0  0  0  0  0  0  0
    2.0046    4.9721    0.0000 S   0  0  0  0  0  0  0  0  0  0  0  0
    3.3037    4.2221    0.0000 C   0  0  0  0  0  0  0  0  0  0  0  0
    4.6740    4.8322    0.0000 N   0  0  0  0  0  0  0  0  0  0  0  0
    5.8875    3.9505    0.0000 C   0  0  0  0  0  0  0  0  0  0  0  0
    7.2578    4.5606    0.0000 C   0  0  0  0  0  0  0  0  0  0  0  0
    7.4146    6.0524    0.0000 O   0  0  0  0  0  0  0  0  0  0  0  0
    6.2011    6.9341    0.0000 C   0  0  0  0  0  0  0  0  0  0  0  0
    4.8308    6.3240    0.0000 C   0  0  0  0  0  0  0  0  0  0  0  0
    2.9918    2.7549    0.0000 N   0  0  0  0  0  0  0  0  0  0  0  0
  1  2  1  0
  2  3  2  0
  2  4  2  0
  2  5  1  0
  5  6  2  0
  6  7  1  0
  6  8  1  0
  8  9  2  0
  9 10  1  0
 10 11  2  0
 11 12  1  0
 12 13  2  0
 13 14  1  0
 14 15  1  0
 15 16  1  0
 16 17  1  0
 17 18  1  0
 18 19  1  0
 19 20  1  0
 20 21  1  0
 15 22  2  0
 11  5  1  0
 22 12  1  0
 21 16  1  0
M  END
>  <assay_chembl_id>  (489) 
CHEMBL3374323

>  <assay_description>  (489) 
Inhibition of androgen receptor transcriptional activity in human LNCaP cells after 3 days by eGFP assay

>  <parent_molecule_chembl_id>  (489) 
CHEMBL3323501

>  <canonical_smiles>  (489) 
CS(=O)(=O)c1c(F)cccc1-c1csc(N2CCOCC2)n1

>  <standard_type>  (489) 
IC50

>  <standard_relation>  (489) 
=

>  <standard_value>  (489) 
3560.0

>  <standard_units>  (489) 
nM

>  <target_pref_name>  (489) 
Androgen Receptor

>  <target_chembl_id>  (489) 
CHEMBL1871

>  <target_organism>  (489) 
Homo sapiens

>  <pchembl_median>  (489) 
6.38

$$$$
CHEMBL3323500
     RDKit          2D

 21 23  0  0  0  0  0  0  0  0999 V2000
    3.7500   -1.2990    0.0000 C   0  0  0  0  0  0  0  0  0  0  0  0
    3.0000    0.0000    0.0000 O   0  0  0  0  0  0  0  0  0  0  0  0
    1.5000    0.0000    0.0000 C   0  0  0  0  0  0  0  0  0  0  0  0
    0.7500   -1.2990    0.0000 C   0  0  0  0  0  0  0  0  0  0  0  0
    1.5000   -2.5981    0.0000 F   0  0  0  0  0  0  0  0  0  0  0  0
   -0.7500   -1.2990    0.0000 C   0  0  0  0  0  0  0  0  0  0  0  0
   -1.5000    0.0000    0.0000 C   0  0  0  0  0  0  0  0  0  0  0  0
   -3.0000    0.0000    0.0000 O   0  0  0  0  0  0  0  0  0  0  0  0
   -0.7500    1.2990    0.0000 C   0  0  0  0  0  0  0  0  0  0  0  0
    0.7500    1.2990    0.0000 C   0  0  0  0  0  0  0  0  0  0  0  0
    1.5000    2.5981    0.0000 C   0  0  0  0  0  0  0  0  0  0  0  0
    0.8899    3.9684    0.0000 C   0  0  0  0  0  0  0  0  0  0  0  0
    2.0046    4.9721    0.0000 S   0  0  0  0  0  0  0  0  0  0  0  0
    3.3037    4.2221    0.0000 C   0  0  0  0  0  0  0  0  0  0  0  0
    4.6740    4.8322    0.0000 N   0  0  0  0  0  0  0  0  0  0  0  0
    5.8875    3.9505    0.0000 C   0  0  0  0  0  0  0  0  0  0  0  0
    7.2578    4.5606    0.0000 C   0  0  0  0  0  0  0  0  0  0  0  0
    7.4146    6.0524    0.0000 O   0  0  0  0  0  0  0  0  0  0  0  0
    6.2011    6.9341    0.0000 C   0  0  0  0  0  0  0  0  0  0  0  0
    4.8308    6.3240    0.0000 C   0  0  0  0  0  0  0  0  0  0  0  0
    2.9918    2.7549    0.0000 N   0  0  0  0  0  0  0  0  0  0  0  0
  1  2  1  0
  2  3  1  0
  3  4  2  0
  4  5  1  0
  4  6  1  0
  6  7  2  0
  7  8  1  0
  7  9  1  0
  9 10  2  0
 10 11  1  0
 11 12  2  0
 12 13  1  0
 13 14  1  0
 14 15  1  0
 15 16  1  0
 16 17  1  0
 17 18  1  0
 18 19  1  0
 19 20  1  0
 14 21  2  0
 10  3  1  0
 21 11  1  0
 20 15  1  0
M  END
>  <assay_chembl_id>  (490) 
CHEMBL3374323

>  <assay_description>  (490) 
Inhibition of androgen receptor transcriptional activity in human LNCaP cells after 3 days by eGFP assay

>  <parent_molecule_chembl_id>  (490) 
CHEMBL3323500

>  <canonical_smiles>  (490) 
COc1c(F)cc(O)cc1-c1csc(N2CCOCC2)n1

>  <standard_type>  (490) 
IC50

>  <standard_relation>  (490) 
=

>  <standard_value>  (490) 
3020.0

>  <standard_units>  (490) 
nM

>  <target_pref_name>  (490) 
Androgen Receptor

>  <target_chembl_id>  (490) 
CHEMBL1871

>  <target_organism>  (490) 
Homo sapiens

>  <pchembl_median>  (490) 
6.64

$$$$
CHEMBL3323499
     RDKit          2D

 17 19  0  0  0  0  0  0  0  0999 V2000
    1.5000    0.0000    0.0000 C   0  0  0  0  0  0  0  0  0  0  0  0
    0.7500   -1.2990    0.0000 C   0  0  0  0  0  0  0  0  0  0  0  0
   -0.7500   -1.2990    0.0000 C   0  0  0  0  0  0  0  0  0  0  0  0
   -1.5000   -2.5981    0.0000 C   0  0  0  0  0  0  0  0  0  0  0  0
   -0.8899   -3.9684    0.0000 C   0  0  0  0  0  0  0  0  0  0  0  0
   -2.0046   -4.9721    0.0000 S   0  0  0  0  0  0  0  0  0  0  0  0
   -3.3037   -4.2221    0.0000 C   0  0  0  0  0  0  0  0  0  0  0  0
   -4.6740   -4.8322    0.0000 N   0  0  0  0  0  0  0  0  0  0  0  0
   -5.8875   -3.9505    0.0000 C   0  0  0  0  0  0  0  0  0  0  0  0
   -7.2578   -4.5606    0.0000 C   0  0  0  0  0  0  0  0  0  0  0  0
   -7.4146   -6.0524    0.0000 O   0  0  0  0  0  0  0  0  0  0  0  0
   -6.2011   -6.9341    0.0000 C   0  0  0  0  0  0  0  0  0  0  0  0
   -4.8308   -6.3240    0.0000 C   0  0  0  0  0  0  0  0  0  0  0  0
   -2.9918   -2.7549    0.0000 N   0  0  0  0  0  0  0  0  0  0  0  0
   -1.5000    0.0000    0.0000 C   0  0  0  0  0  0  0  0  0  0  0  0
   -0.7500    1.2990    0.0000 C   0  0  0  0  0  0  0  0  0  0  0  0
    0.7500    1.2990    0.0000 N   0  0  0  0  0  0  0  0  0  0  0  0
  1  2  2  0
  2  3  1  0
  3  4  1  0
  4  5  2  0
  5  6  1  0
  6  7  1  0
  7  8  1  0
  8  9  1  0
  9 10  1  0
 10 11  1  0
 11 12  1  0
 12 13  1  0
  7 14  2  0
  3 15  2  0
 15 16  1  0
 16 17  2  0
 17  1  1  0
 14  4  1  0
 13  8  1  0
M  END
>  <assay_chembl_id>  (491) 
CHEMBL3374323

>  <assay_description>  (491) 
Inhibition of androgen receptor transcriptional activity in human LNCaP cells after 3 days by eGFP assay

>  <parent_molecule_chembl_id>  (491) 
CHEMBL3323499

>  <canonical_smiles>  (491) 
c1cc(-c2csc(N3CCOCC3)n2)ccn1

>  <standard_type>  (491) 
IC50

>  <standard_relation>  (491) 
=

>  <standard_value>  (491) 
2940.0

>  <standard_units>  (491) 
nM

>  <target_pref_name>  (491) 
Androgen Receptor

>  <target_chembl_id>  (491) 
CHEMBL1871

>  <target_organism>  (491) 
Homo sapiens

>  <pchembl_median>  (491) 
5.96

$$$$
CHEMBL3323496
     RDKit          2D

 17 19  0  0  0  0  0  0  0  0999 V2000
    1.5000    0.0000    0.0000 C   0  0  0  0  0  0  0  0  0  0  0  0
    0.7500   -1.2990    0.0000 C   0  0  0  0  0  0  0  0  0  0  0  0
   -0.7500   -1.2990    0.0000 C   0  0  0  0  0  0  0  0  0  0  0  0
   -1.5000    0.0000    0.0000 C   0  0  0  0  0  0  0  0  0  0  0  0
   -3.0000    0.0000    0.0000 C   0  0  0  0  0  0  0  0  0  0  0  0
   -3.8817   -1.2135    0.0000 C   0  0  0  0  0  0  0  0  0  0  0  0
   -5.3083   -0.7500    0.0000 S   0  0  0  0  0  0  0  0  0  0  0  0
   -5.3083    0.7500    0.0000 C   0  0  0  0  0  0  0  0  0  0  0  0
   -6.5218    1.6317    0.0000 N   0  0  0  0  0  0  0  0  0  0  0  0
   -6.3650    3.1235    0.0000 C   0  0  0  0  0  0  0  0  0  0  0  0
   -7.5785    4.0051    0.0000 C   0  0  0  0  0  0  0  0  0  0  0  0
   -8.9488    3.3950    0.0000 O   0  0  0  0  0  0  0  0  0  0  0  0
   -9.1056    1.9033    0.0000 C   0  0  0  0  0  0  0  0  0  0  0  0
   -7.8921    1.0216    0.0000 C   0  0  0  0  0  0  0  0  0  0  0  0
   -3.8817    1.2135    0.0000 N   0  0  0  0  0  0  0  0  0  0  0  0
   -0.7500    1.2990    0.0000 N   0  0  0  0  0  0  0  0  0  0  0  0
    0.7500    1.2990    0.0000 C   0  0  0  0  0  0  0  0  0  0  0  0
  1  2  2  0
  2  3  1  0
  3  4  2  0
  4  5  1  0
  5  6  2  0
  6  7  1  0
  7  8  1  0
  8  9  1  0
  9 10  1  0
 10 11  1  0
 11 12  1  0
 12 13  1  0
 13 14  1  0
  8 15  2  0
  4 16  1  0
 16 17  2  0
 17  1  1  0
 15  5  1  0
 14  9  1  0
M  END
>  <assay_chembl_id>  (492) 
CHEMBL3374323

>  <assay_description>  (492) 
Inhibition of androgen receptor transcriptional activity in human LNCaP cells after 3 days by eGFP assay

>  <parent_molecule_chembl_id>  (492) 
CHEMBL3323496

>  <canonical_smiles>  (492) 
c1ccc(-c2csc(N3CCOCC3)n2)nc1

>  <standard_type>  (492) 
IC50

>  <standard_relation>  (492) 
=

>  <standard_value>  (492) 
2580.0

>  <standard_units>  (492) 
nM

>  <target_pref_name>  (492) 
Androgen Receptor

>  <target_chembl_id>  (492) 
CHEMBL1871

>  <target_organism>  (492) 
Homo sapiens

>  <pchembl_median>  (492) 
6.89

$$$$
CHEMBL3323480
     RDKit          2D

 19 21  0  0  0  0  0  0  0  0999 V2000
    4.8308   -6.3240    0.0000 O   0  0  0  0  0  0  0  0  0  0  0  0
    4.6740   -4.8322    0.0000 C   0  0  0  0  0  0  0  0  0  0  0  0
    3.3037   -4.2221    0.0000 C   0  0  0  0  0  0  0  0  0  0  0  0
    2.9918   -2.7549    0.0000 S   0  0  0  0  0  0  0  0  0  0  0  0
    1.5000   -2.5981    0.0000 C   0  0  0  0  0  0  0  0  0  0  0  0
    0.7500   -1.2990    0.0000 N   0  0  0  0  0  0  0  0  0  0  0  0
    1.5000    0.0000    0.0000 C   0  0  0  0  0  0  0  0  0  0  0  0
    0.7500    1.2990    0.0000 C   0  0  0  0  0  0  0  0  0  0  0  0
   -0.7500    1.2990    0.0000 O   0  0  0  0  0  0  0  0  0  0  0  0
   -1.5000    0.0000    0.0000 C   0  0  0  0  0  0  0  0  0  0  0  0
   -0.7500   -1.2990    0.0000 C   0  0  0  0  0  0  0  0  0  0  0  0
    0.8899   -3.9684    0.0000 N   0  0  0  0  0  0  0  0  0  0  0  0
    2.0046   -4.9721    0.0000 C   0  0  0  0  0  0  0  0  0  0  0  0
    1.8478   -6.4639    0.0000 C   0  0  0  0  0  0  0  0  0  0  0  0
    0.4775   -7.0740    0.0000 C   0  0  0  0  0  0  0  0  0  0  0  0
    0.3207   -8.5658    0.0000 C   0  0  0  0  0  0  0  0  0  0  0  0
    1.5342   -9.4474    0.0000 C   0  0  0  0  0  0  0  0  0  0  0  0
    2.9046   -8.8373    0.0000 C   0  0  0  0  0  0  0  0  0  0  0  0
    3.0613   -7.3456    0.0000 C   0  0  0  0  0  0  0  0  0  0  0  0
  1  2  1  0
  2  3  1  0
  3  4  1  0
  4  5  1  0
  5  6  1  0
  6  7  1  0
  7  8  1  0
  8  9  1  0
  9 10  1  0
 10 11  1  0
  5 12  2  0
 12 13  1  0
 13 14  1  0
 14 15  2  0
 15 16  1  0
 16 17  2  0
 17 18  1  0
 18 19  2  0
 13  3  2  0
 19 14  1  0
 11  6  1  0
M  END
>  <assay_chembl_id>  (493) 
CHEMBL3374323

>  <assay_description>  (493) 
Inhibition of androgen receptor transcriptional activity in human LNCaP cells after 3 days by eGFP assay

>  <parent_molecule_chembl_id>  (493) 
CHEMBL3323480

>  <canonical_smiles>  (493) 
OCc1sc(N2CCOCC2)nc1-c1ccccc1

>  <standard_type>  (493) 
IC50

>  <standard_relation>  (493) 
=

>  <standard_value>  (493) 
5040.0

>  <standard_units>  (493) 
nM

>  <target_pref_name>  (493) 
Androgen Receptor

>  <target_chembl_id>  (493) 
CHEMBL1871

>  <target_organism>  (493) 
Homo sapiens

>  <pchembl_median>  (493) 
9.0

$$$$
CHEMBL1488607
     RDKit          2D

 18 20  0  0  0  0  0  0  0  0999 V2000
    3.0000    0.0000    0.0000 F   0  0  0  0  0  0  0  0  0  0  0  0
    1.5000    0.0000    0.0000 C   0  0  0  0  0  0  0  0  0  0  0  0
    0.7500   -1.2990    0.0000 C   0  0  0  0  0  0  0  0  0  0  0  0
   -0.7500   -1.2990    0.0000 C   0  0  0  0  0  0  0  0  0  0  0  0
   -1.5000    0.0000    0.0000 C   0  0  0  0  0  0  0  0  0  0  0  0
   -3.0000    0.0000    0.0000 C   0  0  0  0  0  0  0  0  0  0  0  0
   -3.8817   -1.2135    0.0000 C   0  0  0  0  0  0  0  0  0  0  0  0
   -5.3083   -0.7500    0.0000 S   0  0  0  0  0  0  0  0  0  0  0  0
   -5.3083    0.7500    0.0000 C   0  0  0  0  0  0  0  0  0  0  0  0
   -6.5218    1.6317    0.0000 N   0  0  0  0  0  0  0  0  0  0  0  0
   -6.3650    3.1235    0.0000 C   0  0  0  0  0  0  0  0  0  0  0  0
   -7.5785    4.0051    0.0000 C   0  0  0  0  0  0  0  0  0  0  0  0
   -8.9488    3.3950    0.0000 S   0  0  0  0  0  0  0  0  0  0  0  0
   -9.1056    1.9033    0.0000 C   0  0  0  0  0  0  0  0  0  0  0  0
   -7.8921    1.0216    0.0000 C   0  0  0  0  0  0  0  0  0  0  0  0
   -3.8817    1.2135    0.0000 N   0  0  0  0  0  0  0  0  0  0  0  0
   -0.7500    1.2990    0.0000 C   0  0  0  0  0  0  0  0  0  0  0  0
    0.7500    1.2990    0.0000 C   0  0  0  0  0  0  0  0  0  0  0  0
  1  2  1  0
  2  3  2  0
  3  4  1  0
  4  5  2  0
  5  6  1  0
  6  7  2  0
  7  8  1  0
  8  9  1  0
  9 10  1  0
 10 11  1  0
 11 12  1  0
 12 13  1  0
 13 14  1  0
 14 15  1  0
  9 16  2  0
  5 17  1  0
 17 18  2  0
 18  2  1  0
 16  6  1  0
 15 10  1  0
M  END
>  <assay_chembl_id>  (494) 
CHEMBL3374323

>  <assay_description>  (494) 
Inhibition of androgen receptor transcriptional activity in human LNCaP cells after 3 days by eGFP assay

>  <parent_molecule_chembl_id>  (494) 
CHEMBL1488607

>  <canonical_smiles>  (494) 
Fc1ccc(-c2csc(N3CCSCC3)n2)cc1

>  <standard_type>  (494) 
IC50

>  <standard_relation>  (494) 
=

>  <standard_value>  (494) 
1590.0

>  <standard_units>  (494) 
nM

>  <target_pref_name>  (494) 
Androgen Receptor

>  <target_chembl_id>  (494) 
CHEMBL1871

>  <target_organism>  (494) 
Homo sapiens

>  <pchembl_median>  (494) 
7.44

$$$$
CHEMBL1403349
     RDKit          2D

 18 20  0  0  0  0  0  0  0  0999 V2000
    3.0000    0.0000    0.0000 F   0  0  0  0  0  0  0  0  0  0  0  0
    1.5000    0.0000    0.0000 C   0  0  0  0  0  0  0  0  0  0  0  0
    0.7500   -1.2990    0.0000 C   0  0  0  0  0  0  0  0  0  0  0  0
   -0.7500   -1.2990    0.0000 C   0  0  0  0  0  0  0  0  0  0  0  0
   -1.5000    0.0000    0.0000 C   0  0  0  0  0  0  0  0  0  0  0  0
   -3.0000    0.0000    0.0000 C   0  0  0  0  0  0  0  0  0  0  0  0
   -3.8817   -1.2135    0.0000 C   0  0  0  0  0  0  0  0  0  0  0  0
   -5.3083   -0.7500    0.0000 S   0  0  0  0  0  0  0  0  0  0  0  0
   -5.3083    0.7500    0.0000 C   0  0  0  0  0  0  0  0  0  0  0  0
   -6.5218    1.6317    0.0000 C   0  0  0  0  0  0  0  0  0  0  0  0
   -6.3650    3.1235    0.0000 C   0  0  0  0  0  0  0  0  0  0  0  0
   -7.5785    4.0051    0.0000 C   0  0  0  0  0  0  0  0  0  0  0  0
   -8.9488    3.3950    0.0000 N   0  0  0  0  0  0  0  0  0  0  0  0
   -9.1056    1.9033    0.0000 C   0  0  0  0  0  0  0  0  0  0  0  0
   -7.8921    1.0216    0.0000 C   0  0  0  0  0  0  0  0  0  0  0  0
   -3.8817    1.2135    0.0000 N   0  0  0  0  0  0  0  0  0  0  0  0
   -0.7500    1.2990    0.0000 C   0  0  0  0  0  0  0  0  0  0  0  0
    0.7500    1.2990    0.0000 C   0  0  0  0  0  0  0  0  0  0  0  0
  1  2  1  0
  2  3  2  0
  3  4  1  0
  4  5  2  0
  5  6  1  0
  6  7  2  0
  7  8  1  0
  8  9  1  0
  9 10  1  0
 10 11  2  0
 11 12  1  0
 12 13  2  0
 13 14  1  0
 14 15  2  0
  9 16  2  0
  5 17  1  0
 17 18  2  0
 18  2  1  0
 16  6  1  0
 15 10  1  0
M  END
>  <assay_chembl_id>  (495) 
CHEMBL3374323

>  <assay_description>  (495) 
Inhibition of androgen receptor transcriptional activity in human LNCaP cells after 3 days by eGFP assay

>  <parent_molecule_chembl_id>  (495) 
CHEMBL1403349

>  <canonical_smiles>  (495) 
Fc1ccc(-c2csc(-c3ccncc3)n2)cc1

>  <standard_type>  (495) 
IC50

>  <standard_relation>  (495) 
=

>  <standard_value>  (495) 
1270.0

>  <standard_units>  (495) 
nM

>  <target_pref_name>  (495) 
Androgen Receptor

>  <target_chembl_id>  (495) 
CHEMBL1871

>  <target_organism>  (495) 
Homo sapiens

>  <pchembl_median>  (495) 
6.97

$$$$
CHEMBL1549081
     RDKit          2D

 17 19  0  0  0  0  0  0  0  0999 V2000
    1.5000    0.0000    0.0000 C   0  0  0  0  0  0  0  0  0  0  0  0
    0.7500   -1.2990    0.0000 C   0  0  0  0  0  0  0  0  0  0  0  0
   -0.7500   -1.2990    0.0000 C   0  0  0  0  0  0  0  0  0  0  0  0
   -1.5000    0.0000    0.0000 C   0  0  0  0  0  0  0  0  0  0  0  0
   -3.0000    0.0000    0.0000 C   0  0  0  0  0  0  0  0  0  0  0  0
   -3.8817   -1.2135    0.0000 C   0  0  0  0  0  0  0  0  0  0  0  0
   -5.3083   -0.7500    0.0000 S   0  0  0  0  0  0  0  0  0  0  0  0
   -5.3083    0.7500    0.0000 C   0  0  0  0  0  0  0  0  0  0  0  0
   -6.5218    1.6317    0.0000 N   0  0  0  0  0  0  0  0  0  0  0  0
   -6.3650    3.1235    0.0000 C   0  0  0  0  0  0  0  0  0  0  0  0
   -7.5785    4.0051    0.0000 C   0  0  0  0  0  0  0  0  0  0  0  0
   -8.9488    3.3950    0.0000 S   0  0  0  0  0  0  0  0  0  0  0  0
   -9.1056    1.9033    0.0000 C   0  0  0  0  0  0  0  0  0  0  0  0
   -7.8921    1.0216    0.0000 C   0  0  0  0  0  0  0  0  0  0  0  0
   -3.8817    1.2135    0.0000 N   0  0  0  0  0  0  0  0  0  0  0  0
   -0.7500    1.2990    0.0000 C   0  0  0  0  0  0  0  0  0  0  0  0
    0.7500    1.2990    0.0000 C   0  0  0  0  0  0  0  0  0  0  0  0
  1  2  2  0
  2  3  1  0
  3  4  2  0
  4  5  1  0
  5  6  2  0
  6  7  1  0
  7  8  1  0
  8  9  1  0
  9 10  1  0
 10 11  1  0
 11 12  1  0
 12 13  1  0
 13 14  1  0
  8 15  2  0
  4 16  1  0
 16 17  2  0
 17  1  1  0
 15  5  1  0
 14  9  1  0
M  END
>  <assay_chembl_id>  (496) 
CHEMBL3374323

>  <assay_description>  (496) 
Inhibition of androgen receptor transcriptional activity in human LNCaP cells after 3 days by eGFP assay

>  <parent_molecule_chembl_id>  (496) 
CHEMBL1549081

>  <canonical_smiles>  (496) 
c1ccc(-c2csc(N3CCSCC3)n2)cc1

>  <standard_type>  (496) 
IC50

>  <standard_relation>  (496) 
=

>  <standard_value>  (496) 
620.0

>  <standard_units>  (496) 
nM

>  <target_pref_name>  (496) 
Androgen Receptor

>  <target_chembl_id>  (496) 
CHEMBL1871

>  <target_organism>  (496) 
Homo sapiens

>  <pchembl_median>  (496) 
7.36

$$$$
CHEMBL3323469
     RDKit          2D

 17 19  0  0  0  0  0  0  0  0999 V2000
   -3.7500   -9.0933    0.0000 O   0  0  0  0  0  0  0  0  0  0  0  0
   -3.0000   -7.7942    0.0000 C   0  0  0  0  0  0  0  0  0  0  0  0
   -3.7500   -6.4952    0.0000 C   0  0  0  0  0  0  0  0  0  0  0  0
   -3.0000   -5.1962    0.0000 C   0  0  0  0  0  0  0  0  0  0  0  0
   -1.5000   -5.1962    0.0000 C   0  0  0  0  0  0  0  0  0  0  0  0
   -0.7500   -3.8971    0.0000 C   0  0  0  0  0  0  0  0  0  0  0  0
    0.7500   -3.8971    0.0000 C   0  0  0  0  0  0  0  0  0  0  0  0
    1.5000   -2.5981    0.0000 C   0  0  0  0  0  0  0  0  0  0  0  0
    0.7500   -1.2990    0.0000 C   0  0  0  0  0  0  0  0  0  0  0  0
    1.5000    0.0000    0.0000 C   0  0  0  0  0  0  0  0  0  0  0  0
    0.7500    1.2990    0.0000 C   0  0  0  0  0  0  0  0  0  0  0  0
   -0.7500    1.2990    0.0000 C   0  0  0  0  0  0  0  0  0  0  0  0
   -1.5000    0.0000    0.0000 C   0  0  0  0  0  0  0  0  0  0  0  0
   -0.7500   -1.2990    0.0000 C   0  0  0  0  0  0  0  0  0  0  0  0
   -1.5000   -2.5981    0.0000 N   0  0  0  0  0  0  0  0  0  0  0  0
   -0.7500   -6.4952    0.0000 C   0  0  0  0  0  0  0  0  0  0  0  0
   -1.5000   -7.7942    0.0000 C   0  0  0  0  0  0  0  0  0  0  0  0
  1  2  1  0
  2  3  2  0
  3  4  1  0
  4  5  2  0
  5  6  1  0
  6  7  2  0
  7  8  1  0
  8  9  2  0
  9 10  1  0
 10 11  2  0
 11 12  1  0
 12 13  2  0
 13 14  1  0
 14 15  2  0
  5 16  1  0
 16 17  2  0
 17  2  1  0
 15  6  1  0
 14  9  1  0
M  END
>  <assay_chembl_id>  (497) 
CHEMBL3374323

>  <assay_description>  (497) 
Inhibition of androgen receptor transcriptional activity in human LNCaP cells after 3 days by eGFP assay

>  <parent_molecule_chembl_id>  (497) 
CHEMBL3323469

>  <canonical_smiles>  (497) 
Oc1ccc(-c2ccc3ccccc3n2)cc1

>  <standard_type>  (497) 
IC50

>  <standard_relation>  (497) 
=

>  <standard_value>  (497) 
9840.0

>  <standard_units>  (497) 
nM

>  <target_pref_name>  (497) 
Androgen Receptor

>  <target_chembl_id>  (497) 
CHEMBL1871

>  <target_organism>  (497) 
Homo sapiens

>  <pchembl_median>  (497) 
7.14

$$$$
CHEMBL3326454
     RDKit          2D

 21 23  0  0  0  0  0  0  0  0999 V2000
   -4.1640    0.6645    0.0000 C   0  0  0  0  0  0  0  0  0  0  0  0
   -3.4140    1.9635    0.0000 O   0  0  0  0  0  0  0  0  0  0  0  0
   -1.9140    1.9635    0.0000 C   0  0  0  0  0  0  0  0  0  0  0  0
   -1.0323    3.1771    0.0000 C   0  0  0  0  0  0  0  0  0  0  0  0
   -1.4958    4.6036    0.0000 C   0  0  0  0  0  0  0  0  0  0  0  0
   -0.4921    5.7184    0.0000 C   0  0  0  0  0  0  0  0  0  0  0  0
   -0.9556    7.1449    0.0000 C   0  0  0  0  0  0  0  0  0  0  0  0
   -2.4229    7.4568    0.0000 C   0  0  0  0  0  0  0  0  0  0  0  0
   -2.8864    8.8834    0.0000 C   0  0  0  0  0  0  0  0  0  0  0  0
   -3.3499   10.3100    0.0000 N   0  0  0  0  0  0  0  0  0  0  0  0
   -3.4266    6.3421    0.0000 C   0  0  0  0  0  0  0  0  0  0  0  0
   -4.8938    6.6540    0.0000 Cl  0  0  0  0  0  0  0  0  0  0  0  0
   -2.9630    4.9155    0.0000 C   0  0  0  0  0  0  0  0  0  0  0  0
   -3.9667    3.8008    0.0000 C   0  0  0  0  0  0  0  0  0  0  0  0
    0.3943    2.7135    0.0000 N   0  0  0  0  0  0  0  0  0  0  0  0
    0.3943    1.2135    0.0000 N   0  0  0  0  0  0  0  0  0  0  0  0
    1.2760    0.0000    0.0000 C   0  0  0  0  0  0  0  0  0  0  0  0
    0.3943   -1.2135    0.0000 C   0  0  0  0  0  0  0  0  0  0  0  0
   -1.0323   -0.7500    0.0000 C   0  0  0  0  0  0  0  0  0  0  0  0
   -2.2458   -1.6317    0.0000 O   0  0  0  0  0  0  0  0  0  0  0  0
   -1.0323    0.7500    0.0000 C   0  0  0  0  0  0  0  0  0  0  0  0
  1  2  1  0
  3  2  1  6
  3  4  1  0
  4  5  1  0
  5  6  2  0
  6  7  1  0
  7  8  2  0
  8  9  1  0
  9 10  3  0
  8 11  1  0
 11 12  1  0
 11 13  2  0
 13 14  1  0
  4 15  2  0
 15 16  1  0
 16 17  1  0
 17 18  1  0
 18 19  1  0
 19 20  1  6
 19 21  1  0
 21  3  1  0
 13  5  1  0
 21 16  1  1
M  END
>  <assay_chembl_id>  (498) 
CHEMBL3371986

>  <assay_description>  (498) 
Displacement of [3H]DHT from androgen receptor in human MDA-MB-435 cells after 30 mins

>  <parent_molecule_chembl_id>  (498) 
CHEMBL3326454

>  <canonical_smiles>  (498) 
CO[C@@H]1C(c2ccc(C#N)c(Cl)c2C)=NN2CC[C@H](O)[C@@H]12

>  <standard_type>  (498) 
IC50

>  <standard_relation>  (498) 
=

>  <standard_value>  (498) 
0.7

>  <standard_units>  (498) 
nM

>  <target_pref_name>  (498) 
Androgen Receptor

>  <target_chembl_id>  (498) 
CHEMBL1871

>  <target_organism>  (498) 
Homo sapiens

>  <pchembl_median>  (498) 
6.885

$$$$
CHEMBL3318065
     RDKit          2D

 23 25  0  0  0  0  0  0  0  0999 V2000
   -6.4639   -8.4551    0.0000 C   0  0  0  0  0  0  0  0  0  0  0  0
   -4.9721   -8.6119    0.0000 C   0  0  0  0  0  0  0  0  0  0  0  0
   -4.2221   -9.9110    0.0000 C   0  0  0  0  0  0  0  0  0  0  0  0
   -2.7549   -9.5991    0.0000 C   0  0  0  0  0  0  0  0  0  0  0  0
   -2.5981   -8.1073    0.0000 C   0  0  0  0  0  0  0  0  0  0  0  0
   -1.2990   -7.3573    0.0000 C   0  0  0  0  0  0  0  0  0  0  0  0
   -1.2990   -5.8573    0.0000 N   0  0  0  0  0  0  0  0  0  0  0  0
   -0.0000   -5.1073    0.0000 C   0  0  0  0  0  0  0  0  0  0  0  0
    1.2990   -5.8573    0.0000 O   0  0  0  0  0  0  0  0  0  0  0  0
   -0.0000   -3.6073    0.0000 C   0  0  0  0  0  0  0  0  0  0  0  0
    1.2135   -2.7256    0.0000 C   0  0  0  0  0  0  0  0  0  0  0  0
    0.7500   -1.2990    0.0000 C   0  0  0  0  0  0  0  0  0  0  0  0
    1.5000    0.0000    0.0000 C   0  0  0  0  0  0  0  0  0  0  0  0
    0.7500    1.2990    0.0000 C   0  0  0  0  0  0  0  0  0  0  0  0
    1.5000    2.5981    0.0000 F   0  0  0  0  0  0  0  0  0  0  0  0
   -0.7500    1.2990    0.0000 C   0  0  0  0  0  0  0  0  0  0  0  0
   -1.5000    0.0000    0.0000 C   0  0  0  0  0  0  0  0  0  0  0  0
   -0.7500   -1.2990    0.0000 C   0  0  0  0  0  0  0  0  0  0  0  0
   -1.2135   -2.7256    0.0000 N   0  0  0  0  0  0  0  0  0  0  0  0
   -2.5981   -5.1073    0.0000 C   0  0  0  0  0  0  0  0  0  0  0  0
   -3.8971   -5.8573    0.0000 C   0  0  0  0  0  0  0  0  0  0  0  0
   -2.5981   -3.6073    0.0000 C   0  0  0  0  0  0  0  0  0  0  0  0
   -3.9684   -7.4972    0.0000 O   0  0  0  0  0  0  0  0  0  0  0  0
  1  2  1  0
  2  3  2  0
  3  4  1  0
  4  5  2  0
  5  6  1  0
  6  7  1  0
  7  8  1  0
  8  9  2  0
  8 10  1  0
 10 11  2  0
 11 12  1  0
 12 13  2  0
 13 14  1  0
 14 15  1  0
 14 16  2  0
 16 17  1  0
 17 18  2  0
 18 19  1  0
  7 20  1  0
 20 21  1  0
 20 22  1  0
  5 23  1  0
 23  2  1  0
 19 10  1  0
 18 12  1  0
M  END
>  <assay_chembl_id>  (499) 
CHEMBL3368857

>  <assay_description>  (499) 
Inhibition of androgen receptor binding function 3 in human LNCAP cells containing androgen-responsive probasin-derived promoter assessed as reduction in PSA expression after 3 days by prostate surface antigen assay

>  <parent_molecule_chembl_id>  (499) 
CHEMBL3318065

>  <canonical_smiles>  (499) 
Cc1ccc(CN(C(=O)c2cc3cc(F)ccc3[nH]2)C(C)C)o1

>  <standard_type>  (499) 
IC50

>  <standard_relation>  (499) 
=

>  <standard_value>  (499) 
1380.0

>  <standard_units>  (499) 
nM

>  <target_pref_name>  (499) 
Androgen Receptor

>  <target_chembl_id>  (499) 
CHEMBL1871

>  <target_organism>  (499) 
Homo sapiens

>  <pchembl_median>  (499) 
5.28

$$$$
CHEMBL3318064
     RDKit          2D

 22 24  0  0  0  0  0  0  0  0999 V2000
    3.0000    0.0000    0.0000 C   0  0  0  0  0  0  0  0  0  0  0  0
    1.5000    0.0000    0.0000 C   0  0  0  0  0  0  0  0  0  0  0  0
    0.7500   -1.2990    0.0000 C   0  0  0  0  0  0  0  0  0  0  0  0
   -0.7500   -1.2990    0.0000 C   0  0  0  0  0  0  0  0  0  0  0  0
   -1.5000    0.0000    0.0000 C   0  0  0  0  0  0  0  0  0  0  0  0
   -2.9672    0.3119    0.0000 N   0  0  0  0  0  0  0  0  0  0  0  0
   -3.1240    1.8037    0.0000 C   0  0  0  0  0  0  0  0  0  0  0  0
   -4.4231    2.5537    0.0000 C   0  0  0  0  0  0  0  0  0  0  0  0
   -5.7221    1.8037    0.0000 O   0  0  0  0  0  0  0  0  0  0  0  0
   -4.4231    4.0537    0.0000 N   0  0  0  0  0  0  0  0  0  0  0  0
   -5.7221    4.8037    0.0000 C   0  0  0  0  0  0  0  0  0  0  0  0
   -5.7221    6.3037    0.0000 C   0  0  0  0  0  0  0  0  0  0  0  0
   -6.9356    7.1853    0.0000 C   0  0  0  0  0  0  0  0  0  0  0  0
   -6.4721    8.6119    0.0000 C   0  0  0  0  0  0  0  0  0  0  0  0
   -4.9721    8.6119    0.0000 C   0  0  0  0  0  0  0  0  0  0  0  0
   -4.5086    7.1853    0.0000 O   0  0  0  0  0  0  0  0  0  0  0  0
   -3.1240    4.8037    0.0000 C   0  0  0  0  0  0  0  0  0  0  0  0
   -3.1240    6.3037    0.0000 C   0  0  0  0  0  0  0  0  0  0  0  0
   -1.8250    4.0537    0.0000 C   0  0  0  0  0  0  0  0  0  0  0  0
   -1.7537    2.4138    0.0000 C   0  0  0  0  0  0  0  0  0  0  0  0
   -0.7500    1.2990    0.0000 C   0  0  0  0  0  0  0  0  0  0  0  0
    0.7500    1.2990    0.0000 C   0  0  0  0  0  0  0  0  0  0  0  0
  1  2  1  0
  2  3  2  0
  3  4  1  0
  4  5  2  0
  5  6  1  0
  6  7  1  0
  7  8  1  0
  8  9  2  0
  8 10  1  0
 10 11  1  0
 11 12  1  0
 12 13  2  0
 13 14  1  0
 14 15  2  0
 15 16  1  0
 10 17  1  0
 17 18  1  0
 17 19  1  0
  7 20  2  0
 20 21  1  0
 21 22  2  0
 22  2  1  0
 21  5  1  0
 16 12  1  0
M  END
>  <assay_chembl_id>  (500) 
CHEMBL3368857

>  <assay_description>  (500) 
Inhibition of androgen receptor binding function 3 in human LNCAP cells containing androgen-responsive probasin-derived promoter assessed as reduction in PSA expression after 3 days by prostate surface antigen assay

>  <parent_molecule_chembl_id>  (500) 
CHEMBL3318064

>  <canonical_smiles>  (500) 
Cc1ccc2[nH]c(C(=O)N(Cc3ccco3)C(C)C)cc2c1

>  <standard_type>  (500) 
IC50

>  <standard_relation>  (500) 
=

>  <standard_value>  (500) 
1200.0

>  <standard_units>  (500) 
nM

>  <target_pref_name>  (500) 
Androgen Receptor

>  <target_chembl_id>  (500) 
CHEMBL1871

>  <target_organism>  (500) 
Homo sapiens

>  <pchembl_median>  (500) 
6.385

$$$$
CHEMBL3318063
     RDKit          2D

 23 25  0  0  0  0  0  0  0  0999 V2000
    3.0000    0.0000    0.0000 C   0  0  0  0  0  0  0  0  0  0  0  0
    1.5000    0.0000    0.0000 C   0  0  0  0  0  0  0  0  0  0  0  0
    0.7500   -1.2990    0.0000 C   0  0  0  0  0  0  0  0  0  0  0  0
   -0.7500   -1.2990    0.0000 C   0  0  0  0  0  0  0  0  0  0  0  0
   -1.5000    0.0000    0.0000 C   0  0  0  0  0  0  0  0  0  0  0  0
   -2.9672    0.3119    0.0000 N   0  0  0  0  0  0  0  0  0  0  0  0
   -3.1240    1.8037    0.0000 C   0  0  0  0  0  0  0  0  0  0  0  0
   -4.4231    2.5537    0.0000 C   0  0  0  0  0  0  0  0  0  0  0  0
   -5.7221    1.8037    0.0000 O   0  0  0  0  0  0  0  0  0  0  0  0
   -4.4231    4.0537    0.0000 N   0  0  0  0  0  0  0  0  0  0  0  0
   -5.7221    4.8037    0.0000 C   0  0  0  0  0  0  0  0  0  0  0  0
   -5.7221    6.3037    0.0000 C   0  0  0  0  0  0  0  0  0  0  0  0
   -6.9356    7.1853    0.0000 C   0  0  0  0  0  0  0  0  0  0  0  0
   -6.4721    8.6119    0.0000 C   0  0  0  0  0  0  0  0  0  0  0  0
   -4.9721    8.6119    0.0000 C   0  0  0  0  0  0  0  0  0  0  0  0
   -4.0904    9.8254    0.0000 C   0  0  0  0  0  0  0  0  0  0  0  0
   -4.5086    7.1853    0.0000 O   0  0  0  0  0  0  0  0  0  0  0  0
   -3.1240    4.8037    0.0000 C   0  0  0  0  0  0  0  0  0  0  0  0
   -3.1240    6.3037    0.0000 C   0  0  0  0  0  0  0  0  0  0  0  0
   -1.8250    4.0537    0.0000 C   0  0  0  0  0  0  0  0  0  0  0  0
   -1.7537    2.4138    0.0000 C   0  0  0  0  0  0  0  0  0  0  0  0
   -0.7500    1.2990    0.0000 C   0  0  0  0  0  0  0  0  0  0  0  0
    0.7500    1.2990    0.0000 C   0  0  0  0  0  0  0  0  0  0  0  0
  1  2  1  0
  2  3  2  0
  3  4  1  0
  4  5  2  0
  5  6  1  0
  6  7  1  0
  7  8  1  0
  8  9  2  0
  8 10  1  0
 10 11  1  0
 11 12  1  0
 12 13  2  0
 13 14  1  0
 14 15  2  0
 15 16  1  0
 15 17  1  0
 10 18  1  0
 18 19  1  0
 18 20  1  0
  7 21  2  0
 21 22  1  0
 22 23  2  0
 23  2  1  0
 22  5  1  0
 17 12  1  0
M  END
>  <assay_chembl_id>  (501) 
CHEMBL3368857

>  <assay_description>  (501) 
Inhibition of androgen receptor binding function 3 in human LNCAP cells containing androgen-responsive probasin-derived promoter assessed as reduction in PSA expression after 3 days by prostate surface antigen assay

>  <parent_molecule_chembl_id>  (501) 
CHEMBL3318063

>  <canonical_smiles>  (501) 
Cc1ccc2[nH]c(C(=O)N(Cc3ccc(C)o3)C(C)C)cc2c1

>  <standard_type>  (501) 
IC50

>  <standard_relation>  (501) 
=

>  <standard_value>  (501) 
1770.0

>  <standard_units>  (501) 
nM

>  <target_pref_name>  (501) 
Androgen Receptor

>  <target_chembl_id>  (501) 
CHEMBL1871

>  <target_organism>  (501) 
Homo sapiens

>  <pchembl_median>  (501) 
7.82

$$$$
CHEMBL3318062
     RDKit          2D

 23 25  0  0  0  0  0  0  0  0999 V2000
    3.0000    0.0000    0.0000 C   0  0  0  0  0  0  0  0  0  0  0  0
    1.5000    0.0000    0.0000 C   0  0  0  0  0  0  0  0  0  0  0  0
    0.7500   -1.2990    0.0000 C   0  0  0  0  0  0  0  0  0  0  0  0
   -0.7500   -1.2990    0.0000 C   0  0  0  0  0  0  0  0  0  0  0  0
   -1.5000    0.0000    0.0000 C   0  0  0  0  0  0  0  0  0  0  0  0
   -2.9672    0.3119    0.0000 C   0  0  0  0  0  0  0  0  0  0  0  0
   -3.1240    1.8037    0.0000 C   0  0  0  0  0  0  0  0  0  0  0  0
   -4.4231    2.5537    0.0000 C   0  0  0  0  0  0  0  0  0  0  0  0
   -5.7221    1.8037    0.0000 O   0  0  0  0  0  0  0  0  0  0  0  0
   -4.4231    4.0537    0.0000 N   0  0  0  0  0  0  0  0  0  0  0  0
   -5.7221    4.8037    0.0000 C   0  0  0  0  0  0  0  0  0  0  0  0
   -5.7221    6.3037    0.0000 C   0  0  0  0  0  0  0  0  0  0  0  0
   -6.9356    7.1853    0.0000 C   0  0  0  0  0  0  0  0  0  0  0  0
   -6.4721    8.6119    0.0000 C   0  0  0  0  0  0  0  0  0  0  0  0
   -4.9721    8.6119    0.0000 C   0  0  0  0  0  0  0  0  0  0  0  0
   -4.0904    9.8254    0.0000 C   0  0  0  0  0  0  0  0  0  0  0  0
   -4.5086    7.1853    0.0000 O   0  0  0  0  0  0  0  0  0  0  0  0
   -3.1240    4.8037    0.0000 C   0  0  0  0  0  0  0  0  0  0  0  0
   -3.1240    6.3037    0.0000 C   0  0  0  0  0  0  0  0  0  0  0  0
   -1.8250    4.0537    0.0000 C   0  0  0  0  0  0  0  0  0  0  0  0
   -1.7537    2.4138    0.0000 N   0  0  0  0  0  0  0  0  0  0  0  0
   -0.7500    1.2990    0.0000 C   0  0  0  0  0  0  0  0  0  0  0  0
    0.7500    1.2990    0.0000 C   0  0  0  0  0  0  0  0  0  0  0  0
  1  2  1  0
  2  3  2  0
  3  4  1  0
  4  5  2  0
  5  6  1  0
  6  7  2  0
  7  8  1  0
  8  9  2  0
  8 10  1  0
 10 11  1  0
 11 12  1  0
 12 13  2  0
 13 14  1  0
 14 15  2  0
 15 16  1  0
 15 17  1  0
 10 18  1  0
 18 19  1  0
 18 20  1  0
  7 21  1  0
 21 22  1  0
 22 23  2  0
 23  2  1  0
 22  5  1  0
 17 12  1  0
M  END
>  <assay_chembl_id>  (502) 
CHEMBL3368857

>  <assay_description>  (502) 
Inhibition of androgen receptor binding function 3 in human LNCAP cells containing androgen-responsive probasin-derived promoter assessed as reduction in PSA expression after 3 days by prostate surface antigen assay

>  <parent_molecule_chembl_id>  (502) 
CHEMBL3318062

>  <canonical_smiles>  (502) 
Cc1ccc2cc(C(=O)N(Cc3ccc(C)o3)C(C)C)[nH]c2c1

>  <standard_type>  (502) 
IC50

>  <standard_relation>  (502) 
=

>  <standard_value>  (502) 
1650.0

>  <standard_units>  (502) 
nM

>  <target_pref_name>  (502) 
Androgen Receptor

>  <target_chembl_id>  (502) 
CHEMBL1871

>  <target_organism>  (502) 
Homo sapiens

>  <pchembl_median>  (502) 
6.25

$$$$
CHEMBL3318061
     RDKit          2D

 22 24  0  0  0  0  0  0  0  0999 V2000
   -6.4639   -8.4551    0.0000 C   0  0  0  0  0  0  0  0  0  0  0  0
   -4.9721   -8.6119    0.0000 C   0  0  0  0  0  0  0  0  0  0  0  0
   -4.2221   -9.9110    0.0000 C   0  0  0  0  0  0  0  0  0  0  0  0
   -2.7549   -9.5991    0.0000 C   0  0  0  0  0  0  0  0  0  0  0  0
   -2.5981   -8.1073    0.0000 C   0  0  0  0  0  0  0  0  0  0  0  0
   -1.2990   -7.3573    0.0000 C   0  0  0  0  0  0  0  0  0  0  0  0
   -1.2990   -5.8573    0.0000 N   0  0  0  0  0  0  0  0  0  0  0  0
   -0.0000   -5.1073    0.0000 C   0  0  0  0  0  0  0  0  0  0  0  0
    1.2990   -5.8573    0.0000 O   0  0  0  0  0  0  0  0  0  0  0  0
   -0.0000   -3.6073    0.0000 C   0  0  0  0  0  0  0  0  0  0  0  0
    1.2135   -2.7256    0.0000 C   0  0  0  0  0  0  0  0  0  0  0  0
    0.7500   -1.2990    0.0000 C   0  0  0  0  0  0  0  0  0  0  0  0
    1.5000    0.0000    0.0000 C   0  0  0  0  0  0  0  0  0  0  0  0
    0.7500    1.2990    0.0000 C   0  0  0  0  0  0  0  0  0  0  0  0
   -0.7500    1.2990    0.0000 C   0  0  0  0  0  0  0  0  0  0  0  0
   -1.5000    0.0000    0.0000 C   0  0  0  0  0  0  0  0  0  0  0  0
   -0.7500   -1.2990    0.0000 C   0  0  0  0  0  0  0  0  0  0  0  0
   -1.2135   -2.7256    0.0000 N   0  0  0  0  0  0  0  0  0  0  0  0
   -2.5981   -5.1073    0.0000 C   0  0  0  0  0  0  0  0  0  0  0  0
   -3.8971   -5.8573    0.0000 C   0  0  0  0  0  0  0  0  0  0  0  0
   -2.5981   -3.6073    0.0000 C   0  0  0  0  0  0  0  0  0  0  0  0
   -3.9684   -7.4972    0.0000 O   0  0  0  0  0  0  0  0  0  0  0  0
  1  2  1  0
  2  3  2  0
  3  4  1  0
  4  5  2  0
  5  6  1  0
  6  7  1  0
  7  8  1  0
  8  9  2  0
  8 10  1  0
 10 11  2  0
 11 12  1  0
 12 13  2  0
 13 14  1  0
 14 15  2  0
 15 16  1  0
 16 17  2  0
 17 18  1  0
  7 19  1  0
 19 20  1  0
 19 21  1  0
  5 22  1  0
 22  2  1  0
 18 10  1  0
 17 12  1  0
M  END
>  <assay_chembl_id>  (503) 
CHEMBL3368857

>  <assay_description>  (503) 
Inhibition of androgen receptor binding function 3 in human LNCAP cells containing androgen-responsive probasin-derived promoter assessed as reduction in PSA expression after 3 days by prostate surface antigen assay

>  <parent_molecule_chembl_id>  (503) 
CHEMBL3318061

>  <canonical_smiles>  (503) 
Cc1ccc(CN(C(=O)c2cc3ccccc3[nH]2)C(C)C)o1

>  <standard_type>  (503) 
IC50

>  <standard_relation>  (503) 
=

>  <standard_value>  (503) 
3420.0

>  <standard_units>  (503) 
nM

>  <target_pref_name>  (503) 
Androgen Receptor

>  <target_chembl_id>  (503) 
CHEMBL1871

>  <target_organism>  (503) 
Homo sapiens

>  <pchembl_median>  (503) 
6.65

$$$$
CHEMBL3318060
     RDKit          2D

 20 22  0  0  0  0  0  0  0  0999 V2000
   -1.2990   -7.3573    0.0000 C   0  0  0  0  0  0  0  0  0  0  0  0
   -1.2990   -5.8573    0.0000 N   0  0  0  0  0  0  0  0  0  0  0  0
   -2.5981   -5.1073    0.0000 C   0  0  0  0  0  0  0  0  0  0  0  0
   -3.8971   -5.8573    0.0000 C   0  0  0  0  0  0  0  0  0  0  0  0
   -4.0539   -7.3491    0.0000 C   0  0  0  0  0  0  0  0  0  0  0  0
   -5.5211   -7.6610    0.0000 C   0  0  0  0  0  0  0  0  0  0  0  0
   -6.2711   -6.3619    0.0000 C   0  0  0  0  0  0  0  0  0  0  0  0
   -5.2674   -5.2472    0.0000 S   0  0  0  0  0  0  0  0  0  0  0  0
   -0.0000   -5.1073    0.0000 C   0  0  0  0  0  0  0  0  0  0  0  0
    1.2990   -5.8573    0.0000 O   0  0  0  0  0  0  0  0  0  0  0  0
   -0.0000   -3.6073    0.0000 C   0  0  0  0  0  0  0  0  0  0  0  0
    1.2135   -2.7256    0.0000 C   0  0  0  0  0  0  0  0  0  0  0  0
    0.7500   -1.2990    0.0000 C   0  0  0  0  0  0  0  0  0  0  0  0
    1.5000    0.0000    0.0000 C   0  0  0  0  0  0  0  0  0  0  0  0
    0.7500    1.2990    0.0000 C   0  0  0  0  0  0  0  0  0  0  0  0
   -0.7500    1.2990    0.0000 C   0  0  0  0  0  0  0  0  0  0  0  0
   -1.5000    2.5981    0.0000 F   0  0  0  0  0  0  0  0  0  0  0  0
   -1.5000    0.0000    0.0000 C   0  0  0  0  0  0  0  0  0  0  0  0
   -0.7500   -1.2990    0.0000 C   0  0  0  0  0  0  0  0  0  0  0  0
   -1.2135   -2.7256    0.0000 N   0  0  0  0  0  0  0  0  0  0  0  0
  1  2  1  0
  2  3  1  0
  3  4  1  0
  4  5  2  0
  5  6  1  0
  6  7  2  0
  7  8  1  0
  2  9  1  0
  9 10  2  0
  9 11  1  0
 11 12  2  0
 12 13  1  0
 13 14  2  0
 14 15  1  0
 15 16  2  0
 16 17  1  0
 16 18  1  0
 18 19  2  0
 19 20  1  0
  8  4  1  0
 20 11  1  0
 19 13  1  0
M  END
>  <assay_chembl_id>  (504) 
CHEMBL3368857

>  <assay_description>  (504) 
Inhibition of androgen receptor binding function 3 in human LNCAP cells containing androgen-responsive probasin-derived promoter assessed as reduction in PSA expression after 3 days by prostate surface antigen assay

>  <parent_molecule_chembl_id>  (504) 
CHEMBL3318060

>  <canonical_smiles>  (504) 
CN(Cc1cccs1)C(=O)c1cc2ccc(F)cc2[nH]1

>  <standard_type>  (504) 
IC50

>  <standard_relation>  (504) 
=

>  <standard_value>  (504) 
5450.0

>  <standard_units>  (504) 
nM

>  <target_pref_name>  (504) 
Androgen Receptor

>  <target_chembl_id>  (504) 
CHEMBL1871

>  <target_organism>  (504) 
Homo sapiens

>  <pchembl_median>  (504) 
7.17

$$$$
CHEMBL3318059
     RDKit          2D

 21 23  0  0  0  0  0  0  0  0999 V2000
   -1.2990   -7.3573    0.0000 C   0  0  0  0  0  0  0  0  0  0  0  0
   -1.2990   -5.8573    0.0000 N   0  0  0  0  0  0  0  0  0  0  0  0
   -2.5981   -5.1073    0.0000 C   0  0  0  0  0  0  0  0  0  0  0  0
   -3.8971   -5.8573    0.0000 C   0  0  0  0  0  0  0  0  0  0  0  0
   -4.0539   -7.3491    0.0000 C   0  0  0  0  0  0  0  0  0  0  0  0
   -5.5211   -7.6610    0.0000 C   0  0  0  0  0  0  0  0  0  0  0  0
   -6.2711   -6.3619    0.0000 C   0  0  0  0  0  0  0  0  0  0  0  0
   -7.7629   -6.2051    0.0000 Br  0  0  0  0  0  0  0  0  0  0  0  0
   -5.2674   -5.2472    0.0000 S   0  0  0  0  0  0  0  0  0  0  0  0
   -0.0000   -5.1073    0.0000 C   0  0  0  0  0  0  0  0  0  0  0  0
    1.2990   -5.8573    0.0000 O   0  0  0  0  0  0  0  0  0  0  0  0
   -0.0000   -3.6073    0.0000 C   0  0  0  0  0  0  0  0  0  0  0  0
    1.2135   -2.7256    0.0000 C   0  0  0  0  0  0  0  0  0  0  0  0
    0.7500   -1.2990    0.0000 C   0  0  0  0  0  0  0  0  0  0  0  0
    1.5000    0.0000    0.0000 C   0  0  0  0  0  0  0  0  0  0  0  0
    0.7500    1.2990    0.0000 C   0  0  0  0  0  0  0  0  0  0  0  0
   -0.7500    1.2990    0.0000 C   0  0  0  0  0  0  0  0  0  0  0  0
   -1.5000    2.5981    0.0000 F   0  0  0  0  0  0  0  0  0  0  0  0
   -1.5000    0.0000    0.0000 C   0  0  0  0  0  0  0  0  0  0  0  0
   -0.7500   -1.2990    0.0000 C   0  0  0  0  0  0  0  0  0  0  0  0
   -1.2135   -2.7256    0.0000 N   0  0  0  0  0  0  0  0  0  0  0  0
  1  2  1  0
  2  3  1  0
  3  4  1  0
  4  5  2  0
  5  6  1  0
  6  7  2  0
  7  8  1  0
  7  9  1  0
  2 10  1  0
 10 11  2  0
 10 12  1  0
 12 13  2  0
 13 14  1  0
 14 15  2  0
 15 16  1  0
 16 17  2  0
 17 18  1  0
 17 19  1  0
 19 20  2  0
 20 21  1  0
  9  4  1  0
 21 12  1  0
 20 14  1  0
M  END
>  <assay_chembl_id>  (505) 
CHEMBL3368857

>  <assay_description>  (505) 
Inhibition of androgen receptor binding function 3 in human LNCAP cells containing androgen-responsive probasin-derived promoter assessed as reduction in PSA expression after 3 days by prostate surface antigen assay

>  <parent_molecule_chembl_id>  (505) 
CHEMBL3318059

>  <canonical_smiles>  (505) 
CN(Cc1ccc(Br)s1)C(=O)c1cc2ccc(F)cc2[nH]1

>  <standard_type>  (505) 
IC50

>  <standard_relation>  (505) 
=

>  <standard_value>  (505) 
3060.0

>  <standard_units>  (505) 
nM

>  <target_pref_name>  (505) 
Androgen Receptor

>  <target_chembl_id>  (505) 
CHEMBL1871

>  <target_organism>  (505) 
Homo sapiens

>  <pchembl_median>  (505) 
6.37

$$$$
CHEMBL3317457
     RDKit          2D

 25 28  0  0  0  0  0  0  0  0999 V2000
    1.2990   -5.8573    0.0000 O   0  0  0  0  0  0  0  0  0  0  0  0
   -0.0000   -5.1073    0.0000 C   0  0  0  0  0  0  0  0  0  0  0  0
   -0.0000   -3.6073    0.0000 C   0  0  0  0  0  0  0  0  0  0  0  0
    1.2135   -2.7256    0.0000 C   0  0  0  0  0  0  0  0  0  0  0  0
    0.7500   -1.2990    0.0000 C   0  0  0  0  0  0  0  0  0  0  0  0
    1.5000    0.0000    0.0000 C   0  0  0  0  0  0  0  0  0  0  0  0
    0.7500    1.2990    0.0000 C   0  0  0  0  0  0  0  0  0  0  0  0
   -0.7500    1.2990    0.0000 C   0  0  0  0  0  0  0  0  0  0  0  0
   -1.5000    2.5981    0.0000 F   0  0  0  0  0  0  0  0  0  0  0  0
   -1.5000    0.0000    0.0000 C   0  0  0  0  0  0  0  0  0  0  0  0
   -0.7500   -1.2990    0.0000 C   0  0  0  0  0  0  0  0  0  0  0  0
   -1.2135   -2.7256    0.0000 N   0  0  0  0  0  0  0  0  0  0  0  0
   -1.2990   -5.8573    0.0000 N   0  0  0  0  0  0  0  0  0  0  0  0
   -1.2990   -7.3573    0.0000 C   0  0  0  0  0  0  0  0  0  0  0  0
   -0.0000   -8.1073    0.0000 C   0  0  0  0  0  0  0  0  0  0  0  0
    0.1568   -9.5991    0.0000 C   0  0  0  0  0  0  0  0  0  0  0  0
    1.6240   -9.9110    0.0000 C   0  0  0  0  0  0  0  0  0  0  0  0
    2.3740   -8.6119    0.0000 C   0  0  0  0  0  0  0  0  0  0  0  0
    1.3703   -7.4972    0.0000 O   0  0  0  0  0  0  0  0  0  0  0  0
   -2.5981   -5.1073    0.0000 C   0  0  0  0  0  0  0  0  0  0  0  0
   -3.8971   -5.8573    0.0000 C   0  0  0  0  0  0  0  0  0  0  0  0
   -4.0539   -7.3491    0.0000 C   0  0  0  0  0  0  0  0  0  0  0  0
   -5.5211   -7.6610    0.0000 C   0  0  0  0  0  0  0  0  0  0  0  0
   -6.2711   -6.3619    0.0000 C   0  0  0  0  0  0  0  0  0  0  0  0
   -5.2674   -5.2472    0.0000 O   0  0  0  0  0  0  0  0  0  0  0  0
  1  2  2  0
  2  3  1  0
  3  4  2  0
  4  5  1  0
  5  6  2  0
  6  7  1  0
  7  8  2  0
  8  9  1  0
  8 10  1  0
 10 11  2  0
 11 12  1  0
  2 13  1  0
 13 14  1  0
 14 15  1  0
 15 16  2  0
 16 17  1  0
 17 18  2  0
 18 19  1  0
 13 20  1  0
 20 21  1  0
 21 22  2  0
 22 23  1  0
 23 24  2  0
 24 25  1  0
 12  3  1  0
 19 15  1  0
 25 21  1  0
 11  5  1  0
M  END
>  <assay_chembl_id>  (506) 
CHEMBL3368857

>  <assay_description>  (506) 
Inhibition of androgen receptor binding function 3 in human LNCAP cells containing androgen-responsive probasin-derived promoter assessed as reduction in PSA expression after 3 days by prostate surface antigen assay

>  <parent_molecule_chembl_id>  (506) 
CHEMBL3317457

>  <canonical_smiles>  (506) 
O=C(c1cc2ccc(F)cc2[nH]1)N(Cc1ccco1)Cc1ccco1

>  <standard_type>  (506) 
IC50

>  <standard_relation>  (506) 
=

>  <standard_value>  (506) 
5480.0

>  <standard_units>  (506) 
nM

>  <target_pref_name>  (506) 
Androgen Receptor

>  <target_chembl_id>  (506) 
CHEMBL1871

>  <target_organism>  (506) 
Homo sapiens

>  <pchembl_median>  (506) 
6.0

$$$$
CHEMBL3318058
     RDKit          2D

 25 27  0  0  0  0  0  0  0  0999 V2000
   -3.8971   -5.8573    0.0000 C   0  0  0  0  0  0  0  0  0  0  0  0
   -2.5981   -5.1073    0.0000 C   0  0  0  0  0  0  0  0  0  0  0  0
   -2.5981   -3.6073    0.0000 C   0  0  0  0  0  0  0  0  0  0  0  0
   -1.2990   -5.8573    0.0000 N   0  0  0  0  0  0  0  0  0  0  0  0
   -1.2990   -7.3573    0.0000 C   0  0  0  0  0  0  0  0  0  0  0  0
   -2.5981   -8.1073    0.0000 C   0  0  0  0  0  0  0  0  0  0  0  0
   -2.7549   -9.5991    0.0000 C   0  0  0  0  0  0  0  0  0  0  0  0
   -4.2221   -9.9110    0.0000 C   0  0  0  0  0  0  0  0  0  0  0  0
   -4.9721   -8.6119    0.0000 C   0  0  0  0  0  0  0  0  0  0  0  0
   -3.9684   -7.4972    0.0000 O   0  0  0  0  0  0  0  0  0  0  0  0
   -0.0000   -5.1073    0.0000 C   0  0  0  0  0  0  0  0  0  0  0  0
    1.2990   -5.8573    0.0000 O   0  0  0  0  0  0  0  0  0  0  0  0
   -0.0000   -3.6073    0.0000 C   0  0  0  0  0  0  0  0  0  0  0  0
    1.2135   -2.7256    0.0000 C   0  0  0  0  0  0  0  0  0  0  0  0
    0.7500   -1.2990    0.0000 C   0  0  0  0  0  0  0  0  0  0  0  0
    1.5000    0.0000    0.0000 C   0  0  0  0  0  0  0  0  0  0  0  0
    0.7500    1.2990    0.0000 C   0  0  0  0  0  0  0  0  0  0  0  0
    1.5000    2.5981    0.0000 C   0  0  0  0  0  0  0  0  0  0  0  0
    2.2500    3.8971    0.0000 F   0  0  0  0  0  0  0  0  0  0  0  0
    2.7990    1.8481    0.0000 F   0  0  0  0  0  0  0  0  0  0  0  0
    0.2010    3.3481    0.0000 F   0  0  0  0  0  0  0  0  0  0  0  0
   -0.7500    1.2990    0.0000 C   0  0  0  0  0  0  0  0  0  0  0  0
   -1.5000    0.0000    0.0000 C   0  0  0  0  0  0  0  0  0  0  0  0
   -0.7500   -1.2990    0.0000 C   0  0  0  0  0  0  0  0  0  0  0  0
   -1.2135   -2.7256    0.0000 N   0  0  0  0  0  0  0  0  0  0  0  0
  1  2  1  0
  2  3  1  0
  2  4  1  0
  4  5  1  0
  5  6  1  0
  6  7  2  0
  7  8  1  0
  8  9  2  0
  9 10  1  0
  4 11  1  0
 11 12  2  0
 11 13  1  0
 13 14  2  0
 14 15  1  0
 15 16  2  0
 16 17  1  0
 17 18  1  0
 18 19  1  0
 18 20  1  0
 18 21  1  0
 17 22  2  0
 22 23  1  0
 23 24  2  0
 24 25  1  0
 10  6  1  0
 25 13  1  0
 24 15  1  0
M  END
>  <assay_chembl_id>  (507) 
CHEMBL3368857

>  <assay_description>  (507) 
Inhibition of androgen receptor binding function 3 in human LNCAP cells containing androgen-responsive probasin-derived promoter assessed as reduction in PSA expression after 3 days by prostate surface antigen assay

>  <parent_molecule_chembl_id>  (507) 
CHEMBL3318058

>  <canonical_smiles>  (507) 
CC(C)N(Cc1ccco1)C(=O)c1cc2cc(C(F)(F)F)ccc2[nH]1

>  <standard_type>  (507) 
IC50

>  <standard_relation>  (507) 
=

>  <standard_value>  (507) 
5290.0

>  <standard_units>  (507) 
nM

>  <target_pref_name>  (507) 
Androgen Receptor

>  <target_chembl_id>  (507) 
CHEMBL1871

>  <target_organism>  (507) 
Homo sapiens

>  <pchembl_median>  (507) 
6.64

$$$$
CHEMBL3318057
     RDKit          2D

 23 25  0  0  0  0  0  0  0  0999 V2000
   -3.8971  -10.3573    0.0000 C   0  0  0  0  0  0  0  0  0  0  0  0
   -2.5981   -9.6073    0.0000 O   0  0  0  0  0  0  0  0  0  0  0  0
   -2.5981   -8.1073    0.0000 C   0  0  0  0  0  0  0  0  0  0  0  0
   -1.2990   -7.3573    0.0000 C   0  0  0  0  0  0  0  0  0  0  0  0
   -1.2990   -5.8573    0.0000 N   0  0  0  0  0  0  0  0  0  0  0  0
   -2.5981   -5.1073    0.0000 C   0  0  0  0  0  0  0  0  0  0  0  0
   -3.8971   -5.8573    0.0000 C   0  0  0  0  0  0  0  0  0  0  0  0
   -4.0539   -7.3491    0.0000 C   0  0  0  0  0  0  0  0  0  0  0  0
   -5.5211   -7.6610    0.0000 C   0  0  0  0  0  0  0  0  0  0  0  0
   -6.2711   -6.3619    0.0000 C   0  0  0  0  0  0  0  0  0  0  0  0
   -5.2674   -5.2472    0.0000 O   0  0  0  0  0  0  0  0  0  0  0  0
   -0.0000   -5.1073    0.0000 C   0  0  0  0  0  0  0  0  0  0  0  0
    1.2990   -5.8573    0.0000 O   0  0  0  0  0  0  0  0  0  0  0  0
   -0.0000   -3.6073    0.0000 C   0  0  0  0  0  0  0  0  0  0  0  0
    1.2135   -2.7256    0.0000 C   0  0  0  0  0  0  0  0  0  0  0  0
    0.7500   -1.2990    0.0000 C   0  0  0  0  0  0  0  0  0  0  0  0
    1.5000    0.0000    0.0000 C   0  0  0  0  0  0  0  0  0  0  0  0
    0.7500    1.2990    0.0000 C   0  0  0  0  0  0  0  0  0  0  0  0
    1.5000    2.5981    0.0000 F   0  0  0  0  0  0  0  0  0  0  0  0
   -0.7500    1.2990    0.0000 C   0  0  0  0  0  0  0  0  0  0  0  0
   -1.5000    0.0000    0.0000 C   0  0  0  0  0  0  0  0  0  0  0  0
   -0.7500   -1.2990    0.0000 C   0  0  0  0  0  0  0  0  0  0  0  0
   -1.2135   -2.7256    0.0000 N   0  0  0  0  0  0  0  0  0  0  0  0
  1  2  1  0
  2  3  1  0
  3  4  1  0
  4  5  1  0
  5  6  1  0
  6  7  1  0
  7  8  2  0
  8  9  1  0
  9 10  2  0
 10 11  1  0
  5 12  1  0
 12 13  2  0
 12 14  1  0
 14 15  2  0
 15 16  1  0
 16 17  2  0
 17 18  1  0
 18 19  1  0
 18 20  2  0
 20 21  1  0
 21 22  2  0
 22 23  1  0
 11  7  1  0
 23 14  1  0
 22 16  1  0
M  END
>  <assay_chembl_id>  (508) 
CHEMBL3368857

>  <assay_description>  (508) 
Inhibition of androgen receptor binding function 3 in human LNCAP cells containing androgen-responsive probasin-derived promoter assessed as reduction in PSA expression after 3 days by prostate surface antigen assay

>  <parent_molecule_chembl_id>  (508) 
CHEMBL3318057

>  <canonical_smiles>  (508) 
COCCN(Cc1ccco1)C(=O)c1cc2cc(F)ccc2[nH]1

>  <standard_type>  (508) 
IC50

>  <standard_relation>  (508) 
=

>  <standard_value>  (508) 
6620.0

>  <standard_units>  (508) 
nM

>  <target_pref_name>  (508) 
Androgen Receptor

>  <target_chembl_id>  (508) 
CHEMBL1871

>  <target_organism>  (508) 
Homo sapiens

>  <pchembl_median>  (508) 
7.04

$$$$
CHEMBL3318056
     RDKit          2D

 23 25  0  0  0  0  0  0  0  0999 V2000
   -2.5981  -11.1073    0.0000 N   0  0  0  0  0  0  0  0  0  0  0  0
   -2.5981   -9.6073    0.0000 C   0  0  0  0  0  0  0  0  0  0  0  0
   -2.5981   -8.1073    0.0000 C   0  0  0  0  0  0  0  0  0  0  0  0
   -1.2990   -7.3573    0.0000 C   0  0  0  0  0  0  0  0  0  0  0  0
   -1.2990   -5.8573    0.0000 N   0  0  0  0  0  0  0  0  0  0  0  0
   -2.5981   -5.1073    0.0000 C   0  0  0  0  0  0  0  0  0  0  0  0
   -3.8971   -5.8573    0.0000 C   0  0  0  0  0  0  0  0  0  0  0  0
   -5.1962   -5.1073    0.0000 C   0  0  0  0  0  0  0  0  0  0  0  0
   -6.4952   -5.8573    0.0000 C   0  0  0  0  0  0  0  0  0  0  0  0
   -6.4952   -7.3573    0.0000 C   0  0  0  0  0  0  0  0  0  0  0  0
   -5.1962   -8.1073    0.0000 C   0  0  0  0  0  0  0  0  0  0  0  0
   -3.8971   -7.3573    0.0000 C   0  0  0  0  0  0  0  0  0  0  0  0
   -0.0000   -5.1073    0.0000 C   0  0  0  0  0  0  0  0  0  0  0  0
    1.2990   -5.8573    0.0000 O   0  0  0  0  0  0  0  0  0  0  0  0
   -0.0000   -3.6073    0.0000 C   0  0  0  0  0  0  0  0  0  0  0  0
    1.2135   -2.7256    0.0000 C   0  0  0  0  0  0  0  0  0  0  0  0
    0.7500   -1.2990    0.0000 C   0  0  0  0  0  0  0  0  0  0  0  0
    1.5000    0.0000    0.0000 C   0  0  0  0  0  0  0  0  0  0  0  0
    0.7500    1.2990    0.0000 C   0  0  0  0  0  0  0  0  0  0  0  0
   -0.7500    1.2990    0.0000 C   0  0  0  0  0  0  0  0  0  0  0  0
   -1.5000    0.0000    0.0000 C   0  0  0  0  0  0  0  0  0  0  0  0
   -0.7500   -1.2990    0.0000 C   0  0  0  0  0  0  0  0  0  0  0  0
   -1.2135   -2.7256    0.0000 N   0  0  0  0  0  0  0  0  0  0  0  0
  1  2  3  0
  2  3  1  0
  3  4  1  0
  4  5  1  0
  5  6  1  0
  6  7  1  0
  7  8  2  0
  8  9  1  0
  9 10  2  0
 10 11  1  0
 11 12  2  0
  5 13  1  0
 13 14  2  0
 13 15  1  0
 15 16  2  0
 16 17  1  0
 17 18  2  0
 18 19  1  0
 19 20  2  0
 20 21  1  0
 21 22  2  0
 22 23  1  0
 12  7  1  0
 23 15  1  0
 22 17  1  0
M  END
>  <assay_chembl_id>  (509) 
CHEMBL3368857

>  <assay_description>  (509) 
Inhibition of androgen receptor binding function 3 in human LNCAP cells containing androgen-responsive probasin-derived promoter assessed as reduction in PSA expression after 3 days by prostate surface antigen assay

>  <parent_molecule_chembl_id>  (509) 
CHEMBL3318056

>  <canonical_smiles>  (509) 
N#CCCN(Cc1ccccc1)C(=O)c1cc2ccccc2[nH]1

>  <standard_type>  (509) 
IC50

>  <standard_relation>  (509) 
=

>  <standard_value>  (509) 
4580.0

>  <standard_units>  (509) 
nM

>  <target_pref_name>  (509) 
Androgen Receptor

>  <target_chembl_id>  (509) 
CHEMBL1871

>  <target_organism>  (509) 
Homo sapiens

>  <pchembl_median>  (509) 
6.48

$$$$
CHEMBL3318055
     RDKit          2D

 21 23  0  0  0  0  0  0  0  0999 V2000
   -7.7629   -6.2051    0.0000 C   0  0  0  0  0  0  0  0  0  0  0  0
   -6.2711   -6.3619    0.0000 C   0  0  0  0  0  0  0  0  0  0  0  0
   -5.5211   -7.6610    0.0000 C   0  0  0  0  0  0  0  0  0  0  0  0
   -4.0539   -7.3491    0.0000 C   0  0  0  0  0  0  0  0  0  0  0  0
   -3.8971   -5.8573    0.0000 C   0  0  0  0  0  0  0  0  0  0  0  0
   -2.5981   -5.1073    0.0000 C   0  0  0  0  0  0  0  0  0  0  0  0
   -1.2990   -5.8573    0.0000 N   0  0  0  0  0  0  0  0  0  0  0  0
   -1.2990   -7.3573    0.0000 C   0  0  0  0  0  0  0  0  0  0  0  0
   -0.0000   -5.1073    0.0000 C   0  0  0  0  0  0  0  0  0  0  0  0
    1.2990   -5.8573    0.0000 O   0  0  0  0  0  0  0  0  0  0  0  0
   -0.0000   -3.6073    0.0000 C   0  0  0  0  0  0  0  0  0  0  0  0
    1.2135   -2.7256    0.0000 C   0  0  0  0  0  0  0  0  0  0  0  0
    0.7500   -1.2990    0.0000 C   0  0  0  0  0  0  0  0  0  0  0  0
    1.5000    0.0000    0.0000 C   0  0  0  0  0  0  0  0  0  0  0  0
    0.7500    1.2990    0.0000 C   0  0  0  0  0  0  0  0  0  0  0  0
    1.5000    2.5981    0.0000 F   0  0  0  0  0  0  0  0  0  0  0  0
   -0.7500    1.2990    0.0000 C   0  0  0  0  0  0  0  0  0  0  0  0
   -1.5000    0.0000    0.0000 C   0  0  0  0  0  0  0  0  0  0  0  0
   -0.7500   -1.2990    0.0000 C   0  0  0  0  0  0  0  0  0  0  0  0
   -1.2135   -2.7256    0.0000 N   0  0  0  0  0  0  0  0  0  0  0  0
   -5.2674   -5.2472    0.0000 O   0  0  0  0  0  0  0  0  0  0  0  0
  1  2  1  0
  2  3  2  0
  3  4  1  0
  4  5  2  0
  5  6  1  0
  6  7  1  0
  7  8  1  0
  7  9  1  0
  9 10  2  0
  9 11  1  0
 11 12  2  0
 12 13  1  0
 13 14  2  0
 14 15  1  0
 15 16  1  0
 15 17  2  0
 17 18  1  0
 18 19  2  0
 19 20  1  0
  5 21  1  0
 21  2  1  0
 20 11  1  0
 19 13  1  0
M  END
>  <assay_chembl_id>  (510) 
CHEMBL3368857

>  <assay_description>  (510) 
Inhibition of androgen receptor binding function 3 in human LNCAP cells containing androgen-responsive probasin-derived promoter assessed as reduction in PSA expression after 3 days by prostate surface antigen assay

>  <parent_molecule_chembl_id>  (510) 
CHEMBL3318055

>  <canonical_smiles>  (510) 
Cc1ccc(CN(C)C(=O)c2cc3cc(F)ccc3[nH]2)o1

>  <standard_type>  (510) 
IC50

>  <standard_relation>  (510) 
=

>  <standard_value>  (510) 
6560.0

>  <standard_units>  (510) 
nM

>  <target_pref_name>  (510) 
Androgen Receptor

>  <target_chembl_id>  (510) 
CHEMBL1871

>  <target_organism>  (510) 
Homo sapiens

>  <pchembl_median>  (510) 
7.11

$$$$
CHEMBL3318054
     RDKit          2D

 21 23  0  0  0  0  0  0  0  0999 V2000
   -1.2990   -7.3573    0.0000 C   0  0  0  0  0  0  0  0  0  0  0  0
   -1.2990   -5.8573    0.0000 N   0  0  0  0  0  0  0  0  0  0  0  0
   -2.5981   -5.1073    0.0000 C   0  0  0  0  0  0  0  0  0  0  0  0
   -3.8971   -5.8573    0.0000 C   0  0  0  0  0  0  0  0  0  0  0  0
   -4.0539   -7.3491    0.0000 C   0  0  0  0  0  0  0  0  0  0  0  0
   -5.5211   -7.6610    0.0000 C   0  0  0  0  0  0  0  0  0  0  0  0
   -6.2711   -6.3619    0.0000 C   0  0  0  0  0  0  0  0  0  0  0  0
   -7.7629   -6.2051    0.0000 Br  0  0  0  0  0  0  0  0  0  0  0  0
   -5.2674   -5.2472    0.0000 O   0  0  0  0  0  0  0  0  0  0  0  0
   -0.0000   -5.1073    0.0000 C   0  0  0  0  0  0  0  0  0  0  0  0
    1.2990   -5.8573    0.0000 O   0  0  0  0  0  0  0  0  0  0  0  0
   -0.0000   -3.6073    0.0000 C   0  0  0  0  0  0  0  0  0  0  0  0
    1.2135   -2.7256    0.0000 C   0  0  0  0  0  0  0  0  0  0  0  0
    0.7500   -1.2990    0.0000 C   0  0  0  0  0  0  0  0  0  0  0  0
    1.5000    0.0000    0.0000 C   0  0  0  0  0  0  0  0  0  0  0  0
    0.7500    1.2990    0.0000 C   0  0  0  0  0  0  0  0  0  0  0  0
   -0.7500    1.2990    0.0000 C   0  0  0  0  0  0  0  0  0  0  0  0
   -1.5000    2.5981    0.0000 F   0  0  0  0  0  0  0  0  0  0  0  0
   -1.5000    0.0000    0.0000 C   0  0  0  0  0  0  0  0  0  0  0  0
   -0.7500   -1.2990    0.0000 C   0  0  0  0  0  0  0  0  0  0  0  0
   -1.2135   -2.7256    0.0000 N   0  0  0  0  0  0  0  0  0  0  0  0
  1  2  1  0
  2  3  1  0
  3  4  1  0
  4  5  2  0
  5  6  1  0
  6  7  2  0
  7  8  1  0
  7  9  1  0
  2 10  1  0
 10 11  2  0
 10 12  1  0
 12 13  2  0
 13 14  1  0
 14 15  2  0
 15 16  1  0
 16 17  2  0
 17 18  1  0
 17 19  1  0
 19 20  2  0
 20 21  1  0
  9  4  1  0
 21 12  1  0
 20 14  1  0
M  END
>  <assay_chembl_id>  (511) 
CHEMBL3368857

>  <assay_description>  (511) 
Inhibition of androgen receptor binding function 3 in human LNCAP cells containing androgen-responsive probasin-derived promoter assessed as reduction in PSA expression after 3 days by prostate surface antigen assay

>  <parent_molecule_chembl_id>  (511) 
CHEMBL3318054

>  <canonical_smiles>  (511) 
CN(Cc1ccc(Br)o1)C(=O)c1cc2ccc(F)cc2[nH]1

>  <standard_type>  (511) 
IC50

>  <standard_relation>  (511) 
=

>  <standard_value>  (511) 
8090.0

>  <standard_units>  (511) 
nM

>  <target_pref_name>  (511) 
Androgen Receptor

>  <target_chembl_id>  (511) 
CHEMBL1871

>  <target_organism>  (511) 
Homo sapiens

>  <pchembl_median>  (511) 
7.96

$$$$
CHEMBL3318070
     RDKit          2D

 22 24  0  0  0  0  0  0  0  0999 V2000
   -3.8971   -5.8573    0.0000 C   0  0  0  0  0  0  0  0  0  0  0  0
   -2.5981   -5.1073    0.0000 C   0  0  0  0  0  0  0  0  0  0  0  0
   -2.5981   -3.6073    0.0000 C   0  0  0  0  0  0  0  0  0  0  0  0
   -1.2990   -5.8573    0.0000 N   0  0  0  0  0  0  0  0  0  0  0  0
   -1.2990   -7.3573    0.0000 C   0  0  0  0  0  0  0  0  0  0  0  0
   -2.5981   -8.1073    0.0000 C   0  0  0  0  0  0  0  0  0  0  0  0
   -2.7549   -9.5991    0.0000 C   0  0  0  0  0  0  0  0  0  0  0  0
   -4.2221   -9.9110    0.0000 C   0  0  0  0  0  0  0  0  0  0  0  0
   -4.9721   -8.6119    0.0000 C   0  0  0  0  0  0  0  0  0  0  0  0
   -3.9684   -7.4972    0.0000 O   0  0  0  0  0  0  0  0  0  0  0  0
   -0.0000   -5.1073    0.0000 C   0  0  0  0  0  0  0  0  0  0  0  0
    1.2990   -5.8573    0.0000 O   0  0  0  0  0  0  0  0  0  0  0  0
   -0.0000   -3.6073    0.0000 C   0  0  0  0  0  0  0  0  0  0  0  0
    1.2135   -2.7256    0.0000 C   0  0  0  0  0  0  0  0  0  0  0  0
    0.7500   -1.2990    0.0000 C   0  0  0  0  0  0  0  0  0  0  0  0
    1.5000    0.0000    0.0000 C   0  0  0  0  0  0  0  0  0  0  0  0
    0.7500    1.2990    0.0000 C   0  0  0  0  0  0  0  0  0  0  0  0
   -0.7500    1.2990    0.0000 C   0  0  0  0  0  0  0  0  0  0  0  0
   -1.5000    2.5981    0.0000 F   0  0  0  0  0  0  0  0  0  0  0  0
   -1.5000    0.0000    0.0000 C   0  0  0  0  0  0  0  0  0  0  0  0
   -0.7500   -1.2990    0.0000 C   0  0  0  0  0  0  0  0  0  0  0  0
   -1.2135   -2.7256    0.0000 N   0  0  0  0  0  0  0  0  0  0  0  0
  1  2  1  0
  2  3  1  0
  2  4  1  0
  4  5  1  0
  5  6  1  0
  6  7  2  0
  7  8  1  0
  8  9  2  0
  9 10  1  0
  4 11  1  0
 11 12  2  0
 11 13  1  0
 13 14  2  0
 14 15  1  0
 15 16  2  0
 16 17  1  0
 17 18  2  0
 18 19  1  0
 18 20  1  0
 20 21  2  0
 21 22  1  0
 10  6  1  0
 22 13  1  0
 21 15  1  0
M  END
>  <assay_chembl_id>  (512) 
CHEMBL3368856

>  <assay_description>  (512) 
Inhibition of androgen receptor binding function 3 in eGFP-expressing human LNCAP cells containing androgen-responsive probasin-derived promoter assessed as reduction in androgen receptor transcriptional activity after 3 days

>  <parent_molecule_chembl_id>  (512) 
CHEMBL3318070

>  <canonical_smiles>  (512) 
CC(C)N(Cc1ccco1)C(=O)c1cc2ccc(F)cc2[nH]1

>  <standard_type>  (512) 
IC50

>  <standard_relation>  (512) 
=

>  <standard_value>  (512) 
430.0

>  <standard_units>  (512) 
nM

>  <target_pref_name>  (512) 
Androgen Receptor

>  <target_chembl_id>  (512) 
CHEMBL1871

>  <target_organism>  (512) 
Homo sapiens

>  <pchembl_median>  (512) 
6.46

$$$$
CHEMBL3318069
     RDKit          2D

 22 24  0  0  0  0  0  0  0  0999 V2000
   -3.8971   -5.8573    0.0000 C   0  0  0  0  0  0  0  0  0  0  0  0
   -2.5981   -5.1073    0.0000 C   0  0  0  0  0  0  0  0  0  0  0  0
   -2.5981   -3.6073    0.0000 C   0  0  0  0  0  0  0  0  0  0  0  0
   -1.2990   -5.8573    0.0000 N   0  0  0  0  0  0  0  0  0  0  0  0
   -1.2990   -7.3573    0.0000 C   0  0  0  0  0  0  0  0  0  0  0  0
   -2.5981   -8.1073    0.0000 C   0  0  0  0  0  0  0  0  0  0  0  0
   -2.7549   -9.5991    0.0000 C   0  0  0  0  0  0  0  0  0  0  0  0
   -4.2221   -9.9110    0.0000 C   0  0  0  0  0  0  0  0  0  0  0  0
   -4.9721   -8.6119    0.0000 C   0  0  0  0  0  0  0  0  0  0  0  0
   -3.9684   -7.4972    0.0000 O   0  0  0  0  0  0  0  0  0  0  0  0
   -0.0000   -5.1073    0.0000 C   0  0  0  0  0  0  0  0  0  0  0  0
    1.2990   -5.8573    0.0000 O   0  0  0  0  0  0  0  0  0  0  0  0
   -0.0000   -3.6073    0.0000 C   0  0  0  0  0  0  0  0  0  0  0  0
    1.2135   -2.7256    0.0000 C   0  0  0  0  0  0  0  0  0  0  0  0
    0.7500   -1.2990    0.0000 C   0  0  0  0  0  0  0  0  0  0  0  0
    1.5000    0.0000    0.0000 C   0  0  0  0  0  0  0  0  0  0  0  0
    0.7500    1.2990    0.0000 C   0  0  0  0  0  0  0  0  0  0  0  0
    1.5000    2.5981    0.0000 F   0  0  0  0  0  0  0  0  0  0  0  0
   -0.7500    1.2990    0.0000 C   0  0  0  0  0  0  0  0  0  0  0  0
   -1.5000    0.0000    0.0000 C   0  0  0  0  0  0  0  0  0  0  0  0
   -0.7500   -1.2990    0.0000 C   0  0  0  0  0  0  0  0  0  0  0  0
   -1.2135   -2.7256    0.0000 N   0  0  0  0  0  0  0  0  0  0  0  0
  1  2  1  0
  2  3  1  0
  2  4  1  0
  4  5  1  0
  5  6  1  0
  6  7  2  0
  7  8  1  0
  8  9  2  0
  9 10  1  0
  4 11  1  0
 11 12  2  0
 11 13  1  0
 13 14  2  0
 14 15  1  0
 15 16  2  0
 16 17  1  0
 17 18  1  0
 17 19  2  0
 19 20  1  0
 20 21  2  0
 21 22  1  0
 10  6  1  0
 22 13  1  0
 21 15  1  0
M  END
>  <assay_chembl_id>  (513) 
CHEMBL3368856

>  <assay_description>  (513) 
Inhibition of androgen receptor binding function 3 in eGFP-expressing human LNCAP cells containing androgen-responsive probasin-derived promoter assessed as reduction in androgen receptor transcriptional activity after 3 days

>  <parent_molecule_chembl_id>  (513) 
CHEMBL3318069

>  <canonical_smiles>  (513) 
CC(C)N(Cc1ccco1)C(=O)c1cc2cc(F)ccc2[nH]1

>  <standard_type>  (513) 
IC50

>  <standard_relation>  (513) 
=

>  <standard_value>  (513) 
600.0

>  <standard_units>  (513) 
nM

>  <target_pref_name>  (513) 
Androgen Receptor

>  <target_chembl_id>  (513) 
CHEMBL1871

>  <target_organism>  (513) 
Homo sapiens

>  <pchembl_median>  (513) 
7.35

$$$$
CHEMBL3318068
     RDKit          2D

 23 25  0  0  0  0  0  0  0  0999 V2000
   -6.4639   -8.4551    0.0000 C   0  0  0  0  0  0  0  0  0  0  0  0
   -4.9721   -8.6119    0.0000 C   0  0  0  0  0  0  0  0  0  0  0  0
   -4.2221   -9.9110    0.0000 C   0  0  0  0  0  0  0  0  0  0  0  0
   -2.7549   -9.5991    0.0000 C   0  0  0  0  0  0  0  0  0  0  0  0
   -2.5981   -8.1073    0.0000 C   0  0  0  0  0  0  0  0  0  0  0  0
   -1.2990   -7.3573    0.0000 C   0  0  0  0  0  0  0  0  0  0  0  0
   -1.2990   -5.8573    0.0000 N   0  0  0  0  0  0  0  0  0  0  0  0
   -0.0000   -5.1073    0.0000 C   0  0  0  0  0  0  0  0  0  0  0  0
    1.2990   -5.8573    0.0000 O   0  0  0  0  0  0  0  0  0  0  0  0
   -0.0000   -3.6073    0.0000 C   0  0  0  0  0  0  0  0  0  0  0  0
    1.2135   -2.7256    0.0000 C   0  0  0  0  0  0  0  0  0  0  0  0
    0.7500   -1.2990    0.0000 C   0  0  0  0  0  0  0  0  0  0  0  0
    1.5000    0.0000    0.0000 C   0  0  0  0  0  0  0  0  0  0  0  0
    0.7500    1.2990    0.0000 C   0  0  0  0  0  0  0  0  0  0  0  0
   -0.7500    1.2990    0.0000 C   0  0  0  0  0  0  0  0  0  0  0  0
   -1.5000    2.5981    0.0000 F   0  0  0  0  0  0  0  0  0  0  0  0
   -1.5000    0.0000    0.0000 C   0  0  0  0  0  0  0  0  0  0  0  0
   -0.7500   -1.2990    0.0000 C   0  0  0  0  0  0  0  0  0  0  0  0
   -1.2135   -2.7256    0.0000 N   0  0  0  0  0  0  0  0  0  0  0  0
   -2.5981   -5.1073    0.0000 C   0  0  0  0  0  0  0  0  0  0  0  0
   -3.8971   -5.8573    0.0000 C   0  0  0  0  0  0  0  0  0  0  0  0
   -2.5981   -3.6073    0.0000 C   0  0  0  0  0  0  0  0  0  0  0  0
   -3.9684   -7.4972    0.0000 O   0  0  0  0  0  0  0  0  0  0  0  0
  1  2  1  0
  2  3  2  0
  3  4  1  0
  4  5  2  0
  5  6  1  0
  6  7  1  0
  7  8  1  0
  8  9  2  0
  8 10  1  0
 10 11  2  0
 11 12  1  0
 12 13  2  0
 13 14  1  0
 14 15  2  0
 15 16  1  0
 15 17  1  0
 17 18  2  0
 18 19  1  0
  7 20  1  0
 20 21  1  0
 20 22  1  0
  5 23  1  0
 23  2  1  0
 19 10  1  0
 18 12  1  0
M  END
>  <assay_chembl_id>  (514) 
CHEMBL3368856

>  <assay_description>  (514) 
Inhibition of androgen receptor binding function 3 in eGFP-expressing human LNCAP cells containing androgen-responsive probasin-derived promoter assessed as reduction in androgen receptor transcriptional activity after 3 days

>  <parent_molecule_chembl_id>  (514) 
CHEMBL3318068

>  <canonical_smiles>  (514) 
Cc1ccc(CN(C(=O)c2cc3ccc(F)cc3[nH]2)C(C)C)o1

>  <standard_type>  (514) 
IC50

>  <standard_relation>  (514) 
=

>  <standard_value>  (514) 
700.0

>  <standard_units>  (514) 
nM

>  <target_pref_name>  (514) 
Androgen Receptor

>  <target_chembl_id>  (514) 
CHEMBL1871

>  <target_organism>  (514) 
Homo sapiens

>  <pchembl_median>  (514) 
6.25

$$$$
CHEMBL3318067
     RDKit          2D

 23 25  0  0  0  0  0  0  0  0999 V2000
   -6.4639   -8.4551    0.0000 C   0  0  0  0  0  0  0  0  0  0  0  0
   -4.9721   -8.6119    0.0000 C   0  0  0  0  0  0  0  0  0  0  0  0
   -4.2221   -9.9110    0.0000 C   0  0  0  0  0  0  0  0  0  0  0  0
   -2.7549   -9.5991    0.0000 C   0  0  0  0  0  0  0  0  0  0  0  0
   -2.5981   -8.1073    0.0000 C   0  0  0  0  0  0  0  0  0  0  0  0
   -1.2990   -7.3573    0.0000 C   0  0  0  0  0  0  0  0  0  0  0  0
   -1.2990   -5.8573    0.0000 N   0  0  0  0  0  0  0  0  0  0  0  0
   -0.0000   -5.1073    0.0000 C   0  0  0  0  0  0  0  0  0  0  0  0
    1.2990   -5.8573    0.0000 O   0  0  0  0  0  0  0  0  0  0  0  0
   -0.0000   -3.6073    0.0000 C   0  0  0  0  0  0  0  0  0  0  0  0
    1.2135   -2.7256    0.0000 C   0  0  0  0  0  0  0  0  0  0  0  0
    0.7500   -1.2990    0.0000 C   0  0  0  0  0  0  0  0  0  0  0  0
    1.5000    0.0000    0.0000 C   0  0  0  0  0  0  0  0  0  0  0  0
    0.7500    1.2990    0.0000 C   0  0  0  0  0  0  0  0  0  0  0  0
   -0.7500    1.2990    0.0000 C   0  0  0  0  0  0  0  0  0  0  0  0
   -1.5000    0.0000    0.0000 C   0  0  0  0  0  0  0  0  0  0  0  0
   -3.0000    0.0000    0.0000 F   0  0  0  0  0  0  0  0  0  0  0  0
   -0.7500   -1.2990    0.0000 C   0  0  0  0  0  0  0  0  0  0  0  0
   -1.2135   -2.7256    0.0000 N   0  0  0  0  0  0  0  0  0  0  0  0
   -2.5981   -5.1073    0.0000 C   0  0  0  0  0  0  0  0  0  0  0  0
   -3.8971   -5.8573    0.0000 C   0  0  0  0  0  0  0  0  0  0  0  0
   -2.5981   -3.6073    0.0000 C   0  0  0  0  0  0  0  0  0  0  0  0
   -3.9684   -7.4972    0.0000 O   0  0  0  0  0  0  0  0  0  0  0  0
  1  2  1  0
  2  3  2  0
  3  4  1  0
  4  5  2  0
  5  6  1  0
  6  7  1  0
  7  8  1  0
  8  9  2  0
  8 10  1  0
 10 11  2  0
 11 12  1  0
 12 13  2  0
 13 14  1  0
 14 15  2  0
 15 16  1  0
 16 17  1  0
 16 18  2  0
 18 19  1  0
  7 20  1  0
 20 21  1  0
 20 22  1  0
  5 23  1  0
 23  2  1  0
 19 10  1  0
 18 12  1  0
M  END
>  <assay_chembl_id>  (515) 
CHEMBL3368856

>  <assay_description>  (515) 
Inhibition of androgen receptor binding function 3 in eGFP-expressing human LNCAP cells containing androgen-responsive probasin-derived promoter assessed as reduction in androgen receptor transcriptional activity after 3 days

>  <parent_molecule_chembl_id>  (515) 
CHEMBL3318067

>  <canonical_smiles>  (515) 
Cc1ccc(CN(C(=O)c2cc3cccc(F)c3[nH]2)C(C)C)o1

>  <standard_type>  (515) 
IC50

>  <standard_relation>  (515) 
=

>  <standard_value>  (515) 
1000.0

>  <standard_units>  (515) 
nM

>  <target_pref_name>  (515) 
Androgen Receptor

>  <target_chembl_id>  (515) 
CHEMBL1871

>  <target_organism>  (515) 
Homo sapiens

>  <pchembl_median>  (515) 
9.1

$$$$
CHEMBL3318066
     RDKit          2D

 22 24  0  0  0  0  0  0  0  0999 V2000
    3.0000    0.0000    0.0000 C   0  0  0  0  0  0  0  0  0  0  0  0
    1.5000    0.0000    0.0000 C   0  0  0  0  0  0  0  0  0  0  0  0
    0.7500   -1.2990    0.0000 C   0  0  0  0  0  0  0  0  0  0  0  0
   -0.7500   -1.2990    0.0000 C   0  0  0  0  0  0  0  0  0  0  0  0
   -1.5000    0.0000    0.0000 C   0  0  0  0  0  0  0  0  0  0  0  0
   -2.9672    0.3119    0.0000 C   0  0  0  0  0  0  0  0  0  0  0  0
   -3.1240    1.8037    0.0000 C   0  0  0  0  0  0  0  0  0  0  0  0
   -4.4231    2.5537    0.0000 C   0  0  0  0  0  0  0  0  0  0  0  0
   -5.7221    1.8037    0.0000 O   0  0  0  0  0  0  0  0  0  0  0  0
   -4.4231    4.0537    0.0000 N   0  0  0  0  0  0  0  0  0  0  0  0
   -5.7221    4.8037    0.0000 C   0  0  0  0  0  0  0  0  0  0  0  0
   -5.7221    6.3037    0.0000 C   0  0  0  0  0  0  0  0  0  0  0  0
   -6.9356    7.1853    0.0000 C   0  0  0  0  0  0  0  0  0  0  0  0
   -6.4721    8.6119    0.0000 C   0  0  0  0  0  0  0  0  0  0  0  0
   -4.9721    8.6119    0.0000 C   0  0  0  0  0  0  0  0  0  0  0  0
   -4.5086    7.1853    0.0000 O   0  0  0  0  0  0  0  0  0  0  0  0
   -3.1240    4.8037    0.0000 C   0  0  0  0  0  0  0  0  0  0  0  0
   -3.1240    6.3037    0.0000 C   0  0  0  0  0  0  0  0  0  0  0  0
   -1.8250    4.0537    0.0000 C   0  0  0  0  0  0  0  0  0  0  0  0
   -1.7537    2.4138    0.0000 N   0  0  0  0  0  0  0  0  0  0  0  0
   -0.7500    1.2990    0.0000 C   0  0  0  0  0  0  0  0  0  0  0  0
    0.7500    1.2990    0.0000 C   0  0  0  0  0  0  0  0  0  0  0  0
  1  2  1  0
  2  3  2  0
  3  4  1  0
  4  5  2  0
  5  6  1  0
  6  7  2  0
  7  8  1  0
  8  9  2  0
  8 10  1  0
 10 11  1  0
 11 12  1  0
 12 13  2  0
 13 14  1  0
 14 15  2  0
 15 16  1  0
 10 17  1  0
 17 18  1  0
 17 19  1  0
  7 20  1  0
 20 21  1  0
 21 22  2  0
 22  2  1  0
 21  5  1  0
 16 12  1  0
M  END
>  <assay_chembl_id>  (516) 
CHEMBL3368856

>  <assay_description>  (516) 
Inhibition of androgen receptor binding function 3 in eGFP-expressing human LNCAP cells containing androgen-responsive probasin-derived promoter assessed as reduction in androgen receptor transcriptional activity after 3 days

>  <parent_molecule_chembl_id>  (516) 
CHEMBL3318066

>  <canonical_smiles>  (516) 
Cc1ccc2cc(C(=O)N(Cc3ccco3)C(C)C)[nH]c2c1

>  <standard_type>  (516) 
IC50

>  <standard_relation>  (516) 
=

>  <standard_value>  (516) 
1020.0

>  <standard_units>  (516) 
nM

>  <target_pref_name>  (516) 
Androgen Receptor

>  <target_chembl_id>  (516) 
CHEMBL1871

>  <target_organism>  (516) 
Homo sapiens

>  <pchembl_median>  (516) 
6.53

$$$$
CHEMBL3337731
     RDKit          2D

 31 35  0  0  0  0  0  0  0  0999 V2000
   -0.5773   -4.2803    0.0000 C   0  0  0  0  0  0  0  0  0  0  0  0
    0.8899   -3.9684    0.0000 C   0  0  0  0  0  0  0  0  0  0  0  0
    2.0046   -4.9721    0.0000 N   0  0  0  0  0  0  0  0  0  0  0  0
    3.3037   -4.2221    0.0000 N   0  0  0  0  0  0  0  0  0  0  0  0
    4.6740   -4.8322    0.0000 C   0  0  0  0  0  0  0  0  0  0  0  0
    4.8308   -6.3240    0.0000 C   0  0  0  0  0  0  0  0  0  0  0  0
    3.6172   -7.2057    0.0000 C   0  0  0  0  0  0  0  0  0  0  0  0
    3.7740   -8.6974    0.0000 C   0  0  0  0  0  0  0  0  0  0  0  0
    5.1443   -9.3075    0.0000 C   0  0  0  0  0  0  0  0  0  0  0  0
    6.3579   -8.4259    0.0000 C   0  0  0  0  0  0  0  0  0  0  0  0
    6.2011   -6.9341    0.0000 C   0  0  0  0  0  0  0  0  0  0  0  0
    2.9918   -2.7549    0.0000 C   0  0  0  0  0  0  0  0  0  0  0  0
    3.9955   -1.6402    0.0000 C   0  0  0  0  0  0  0  0  0  0  0  0
    5.4627   -1.9520    0.0000 C   0  0  0  0  0  0  0  0  0  0  0  0
    6.4664   -0.8373    0.0000 C   0  0  0  0  0  0  0  0  0  0  0  0
    6.0029    0.5893    0.0000 C   0  0  0  0  0  0  0  0  0  0  0  0
    7.0066    1.7040    0.0000 F   0  0  0  0  0  0  0  0  0  0  0  0
    4.5356    0.9012    0.0000 C   0  0  0  0  0  0  0  0  0  0  0  0
    3.5320   -0.2136    0.0000 C   0  0  0  0  0  0  0  0  0  0  0  0
    1.5000   -2.5981    0.0000 C   0  0  0  0  0  0  0  0  0  0  0  0
    0.7500   -1.2990    0.0000 C   0  0  0  0  0  0  0  0  0  0  0  0
    1.5000    0.0000    0.0000 C   0  0  0  0  0  0  0  0  0  0  0  0
    0.7500    1.2990    0.0000 C   0  0  0  0  0  0  0  0  0  0  0  0
   -0.7500    1.2990    0.0000 C   0  0  0  0  0  0  0  0  0  0  0  0
   -1.5000    0.0000    0.0000 C   0  0  0  0  0  0  0  0  0  0  0  0
   -0.7500   -1.2990    0.0000 C   0  0  0  0  0  0  0  0  0  0  0  0
   -3.0000    0.0000    0.0000 N   0  0  0  0  0  0  0  0  0  0  0  0
   -3.7500    1.2990    0.0000 C   0  0  0  0  0  0  0  0  0  0  0  0
   -5.2500    1.2990    0.0000 O   0  0  0  0  0  0  0  0  0  0  0  0
   -3.0000    2.5981    0.0000 C   0  0  0  0  0  0  0  0  0  0  0  0
   -1.5000    2.5981    0.0000 O   0  0  0  0  0  0  0  0  0  0  0  0
  1  2  1  0
  2  3  2  0
  3  4  1  0
  4  5  1  0
  5  6  1  0
  6  7  2  0
  7  8  1  0
  8  9  2  0
  9 10  1  0
 10 11  2  0
  4 12  1  0
 12 13  1  0
 13 14  2  0
 14 15  1  0
 15 16  2  0
 16 17  1  0
 16 18  1  0
 18 19  2  0
 12 20  2  0
 20 21  1  0
 21 22  2  0
 22 23  1  0
 23 24  2  0
 24 25  1  0
 25 26  2  0
 25 27  1  0
 27 28  1  0
 28 29  2  0
 28 30  1  0
 30 31  1  0
 20  2  1  0
 26 21  1  0
 11  6  1  0
 19 13  1  0
 31 24  1  0
M  END
>  <assay_chembl_id>  (517) 
CHEMBL3381812

>  <assay_description>  (517) 
Displacement of [3H]testosterone from androgen receptor (unknown origin) expressed in 293 cells after 16 hrs by scintillation counting

>  <parent_molecule_chembl_id>  (517) 
CHEMBL3337731

>  <canonical_smiles>  (517) 
Cc1nn(Cc2ccccc2)c(-c2ccc(F)cc2)c1-c1ccc2c(c1)NC(=O)CO2

>  <standard_type>  (517) 
IC50

>  <standard_relation>  (517) 
=

>  <standard_value>  (517) 
5600.0

>  <standard_units>  (517) 
nM

>  <target_pref_name>  (517) 
Androgen Receptor

>  <target_chembl_id>  (517) 
CHEMBL1871

>  <target_organism>  (517) 
Homo sapiens

>  <pchembl_median>  (517) 
6.66

$$$$
CHEMBL3337823
     RDKit          2D

 28 31  0  0  0  0  0  0  0  0999 V2000
   -1.0496   -9.1759    0.0000 C   0  0  0  0  0  0  0  0  0  0  0  0
    0.3207   -8.5658    0.0000 C   0  0  0  0  0  0  0  0  0  0  0  0
    0.4775   -7.0740    0.0000 C   0  0  0  0  0  0  0  0  0  0  0  0
    1.8478   -6.4639    0.0000 C   0  0  0  0  0  0  0  0  0  0  0  0
    2.0046   -4.9721    0.0000 N   0  0  0  0  0  0  0  0  0  0  0  0
    3.3037   -4.2221    0.0000 N   0  0  0  0  0  0  0  0  0  0  0  0
    2.9918   -2.7549    0.0000 C   0  0  0  0  0  0  0  0  0  0  0  0
    3.9955   -1.6402    0.0000 C   0  0  0  0  0  0  0  0  0  0  0  0
    1.5000   -2.5981    0.0000 C   0  0  0  0  0  0  0  0  0  0  0  0
    0.7500   -1.2990    0.0000 C   0  0  0  0  0  0  0  0  0  0  0  0
    1.5000    0.0000    0.0000 C   0  0  0  0  0  0  0  0  0  0  0  0
    0.7500    1.2990    0.0000 C   0  0  0  0  0  0  0  0  0  0  0  0
   -0.7500    1.2990    0.0000 C   0  0  0  0  0  0  0  0  0  0  0  0
   -1.5000    0.0000    0.0000 C   0  0  0  0  0  0  0  0  0  0  0  0
   -0.7500   -1.2990    0.0000 C   0  0  0  0  0  0  0  0  0  0  0  0
   -3.0000    0.0000    0.0000 N   0  0  0  0  0  0  0  0  0  0  0  0
   -3.7500    1.2990    0.0000 C   0  0  0  0  0  0  0  0  0  0  0  0
   -5.2500    1.2990    0.0000 O   0  0  0  0  0  0  0  0  0  0  0  0
   -3.0000    2.5981    0.0000 C   0  0  0  0  0  0  0  0  0  0  0  0
   -1.5000    2.5981    0.0000 O   0  0  0  0  0  0  0  0  0  0  0  0
    0.8899   -3.9684    0.0000 C   0  0  0  0  0  0  0  0  0  0  0  0
   -0.5773   -4.2803    0.0000 C   0  0  0  0  0  0  0  0  0  0  0  0
   -1.5810   -3.1655    0.0000 C   0  0  0  0  0  0  0  0  0  0  0  0
   -3.0482   -3.4774    0.0000 C   0  0  0  0  0  0  0  0  0  0  0  0
   -3.5118   -4.9040    0.0000 C   0  0  0  0  0  0  0  0  0  0  0  0
   -4.9790   -5.2159    0.0000 F   0  0  0  0  0  0  0  0  0  0  0  0
   -2.5081   -6.0187    0.0000 C   0  0  0  0  0  0  0  0  0  0  0  0
   -1.0409   -5.7068    0.0000 C   0  0  0  0  0  0  0  0  0  0  0  0
  1  2  1  0
  2  3  1  0
  3  4  1  0
  4  5  1  0
  5  6  1  0
  6  7  2  0
  7  8  1  0
  7  9  1  0
  9 10  1  0
 10 11  2  0
 11 12  1  0
 12 13  2  0
 13 14  1  0
 14 15  2  0
 14 16  1  0
 16 17  1  0
 17 18  2  0
 17 19  1  0
 19 20  1  0
  9 21  2  0
 21 22  1  0
 22 23  2  0
 23 24  1  0
 24 25  2  0
 25 26  1  0
 25 27  1  0
 27 28  2  0
 21  5  1  0
 28 22  1  0
 15 10  1  0
 20 13  1  0
M  END
>  <assay_chembl_id>  (518) 
CHEMBL3381812

>  <assay_description>  (518) 
Displacement of [3H]testosterone from androgen receptor (unknown origin) expressed in 293 cells after 16 hrs by scintillation counting

>  <parent_molecule_chembl_id>  (518) 
CHEMBL3337823

>  <canonical_smiles>  (518) 
CCCCn1nc(C)c(-c2ccc3c(c2)NC(=O)CO3)c1-c1ccc(F)cc1

>  <standard_type>  (518) 
IC50

>  <standard_relation>  (518) 
=

>  <standard_value>  (518) 
3600.0

>  <standard_units>  (518) 
nM

>  <target_pref_name>  (518) 
Androgen Receptor

>  <target_chembl_id>  (518) 
CHEMBL1871

>  <target_organism>  (518) 
Homo sapiens

>  <pchembl_median>  (518) 
6.71

$$$$
CHEMBL3337824
     RDKit          2D

 28 31  0  0  0  0  0  0  0  0999 V2000
   -0.5773   -4.2803    0.0000 C   0  0  0  0  0  0  0  0  0  0  0  0
    0.8899   -3.9684    0.0000 C   0  0  0  0  0  0  0  0  0  0  0  0
    2.0046   -4.9721    0.0000 N   0  0  0  0  0  0  0  0  0  0  0  0
    3.3037   -4.2221    0.0000 N   0  0  0  0  0  0  0  0  0  0  0  0
    4.6740   -4.8322    0.0000 C   0  0  0  0  0  0  0  0  0  0  0  0
    4.8308   -6.3240    0.0000 C   0  0  0  0  0  0  0  0  0  0  0  0
    6.2011   -6.9341    0.0000 C   0  0  0  0  0  0  0  0  0  0  0  0
    3.6172   -7.2057    0.0000 C   0  0  0  0  0  0  0  0  0  0  0  0
    2.9918   -2.7549    0.0000 C   0  0  0  0  0  0  0  0  0  0  0  0
    3.9955   -1.6402    0.0000 C   0  0  0  0  0  0  0  0  0  0  0  0
    5.4627   -1.9520    0.0000 C   0  0  0  0  0  0  0  0  0  0  0  0
    6.4664   -0.8373    0.0000 C   0  0  0  0  0  0  0  0  0  0  0  0
    6.0029    0.5893    0.0000 C   0  0  0  0  0  0  0  0  0  0  0  0
    7.0066    1.7040    0.0000 F   0  0  0  0  0  0  0  0  0  0  0  0
    4.5356    0.9012    0.0000 C   0  0  0  0  0  0  0  0  0  0  0  0
    3.5320   -0.2136    0.0000 C   0  0  0  0  0  0  0  0  0  0  0  0
    1.5000   -2.5981    0.0000 C   0  0  0  0  0  0  0  0  0  0  0  0
    0.7500   -1.2990    0.0000 C   0  0  0  0  0  0  0  0  0  0  0  0
    1.5000    0.0000    0.0000 C   0  0  0  0  0  0  0  0  0  0  0  0
    0.7500    1.2990    0.0000 C   0  0  0  0  0  0  0  0  0  0  0  0
   -0.7500    1.2990    0.0000 C   0  0  0  0  0  0  0  0  0  0  0  0
   -1.5000    0.0000    0.0000 C   0  0  0  0  0  0  0  0  0  0  0  0
   -0.7500   -1.2990    0.0000 C   0  0  0  0  0  0  0  0  0  0  0  0
   -3.0000    0.0000    0.0000 N   0  0  0  0  0  0  0  0  0  0  0  0
   -3.7500    1.2990    0.0000 C   0  0  0  0  0  0  0  0  0  0  0  0
   -5.2500    1.2990    0.0000 O   0  0  0  0  0  0  0  0  0  0  0  0
   -3.0000    2.5981    0.0000 C   0  0  0  0  0  0  0  0  0  0  0  0
   -1.5000    2.5981    0.0000 O   0  0  0  0  0  0  0  0  0  0  0  0
  1  2  1  0
  2  3  2  0
  3  4  1  0
  4  5  1  0
  5  6  1  0
  6  7  1  0
  6  8  1  0
  4  9  1  0
  9 10  1  0
 10 11  2  0
 11 12  1  0
 12 13  2  0
 13 14  1  0
 13 15  1  0
 15 16  2  0
  9 17  2  0
 17 18  1  0
 18 19  2  0
 19 20  1  0
 20 21  2  0
 21 22  1  0
 22 23  2  0
 22 24  1  0
 24 25  1  0
 25 26  2  0
 25 27  1  0
 27 28  1  0
 17  2  1  0
 23 18  1  0
 16 10  1  0
 28 21  1  0
M  END
>  <assay_chembl_id>  (519) 
CHEMBL3381812

>  <assay_description>  (519) 
Displacement of [3H]testosterone from androgen receptor (unknown origin) expressed in 293 cells after 16 hrs by scintillation counting

>  <parent_molecule_chembl_id>  (519) 
CHEMBL3337824

>  <canonical_smiles>  (519) 
Cc1nn(CC(C)C)c(-c2ccc(F)cc2)c1-c1ccc2c(c1)NC(=O)CO2

>  <standard_type>  (519) 
IC50

>  <standard_relation>  (519) 
=

>  <standard_value>  (519) 
3700.0

>  <standard_units>  (519) 
nM

>  <target_pref_name>  (519) 
Androgen Receptor

>  <target_chembl_id>  (519) 
CHEMBL1871

>  <target_organism>  (519) 
Homo sapiens

>  <pchembl_median>  (519) 
6.775

$$$$
CHEMBL3337831
     RDKit          2D

 30 33  0  0  0  0  0  0  0  0999 V2000
   -0.5773   -4.2803    0.0000 C   0  0  0  0  0  0  0  0  0  0  0  0
    0.8899   -3.9684    0.0000 C   0  0  0  0  0  0  0  0  0  0  0  0
    2.0046   -4.9721    0.0000 N   0  0  0  0  0  0  0  0  0  0  0  0
    3.3037   -4.2221    0.0000 N   0  0  0  0  0  0  0  0  0  0  0  0
    4.6740   -4.8322    0.0000 C   0  0  0  0  0  0  0  0  0  0  0  0
    4.8308   -6.3240    0.0000 C   0  0  0  0  0  0  0  0  0  0  0  0
    6.2011   -6.9341    0.0000 C   0  0  0  0  0  0  0  0  0  0  0  0
    7.5714   -7.5442    0.0000 C   0  0  0  0  0  0  0  0  0  0  0  0
    6.8112   -5.5638    0.0000 F   0  0  0  0  0  0  0  0  0  0  0  0
    5.5910   -8.3044    0.0000 F   0  0  0  0  0  0  0  0  0  0  0  0
    2.9918   -2.7549    0.0000 C   0  0  0  0  0  0  0  0  0  0  0  0
    3.9955   -1.6402    0.0000 C   0  0  0  0  0  0  0  0  0  0  0  0
    5.4627   -1.9520    0.0000 C   0  0  0  0  0  0  0  0  0  0  0  0
    6.4664   -0.8373    0.0000 C   0  0  0  0  0  0  0  0  0  0  0  0
    6.0029    0.5893    0.0000 C   0  0  0  0  0  0  0  0  0  0  0  0
    7.0066    1.7040    0.0000 F   0  0  0  0  0  0  0  0  0  0  0  0
    4.5356    0.9012    0.0000 C   0  0  0  0  0  0  0  0  0  0  0  0
    3.5320   -0.2136    0.0000 C   0  0  0  0  0  0  0  0  0  0  0  0
    1.5000   -2.5981    0.0000 C   0  0  0  0  0  0  0  0  0  0  0  0
    0.7500   -1.2990    0.0000 C   0  0  0  0  0  0  0  0  0  0  0  0
    1.5000    0.0000    0.0000 C   0  0  0  0  0  0  0  0  0  0  0  0
    0.7500    1.2990    0.0000 C   0  0  0  0  0  0  0  0  0  0  0  0
   -0.7500    1.2990    0.0000 C   0  0  0  0  0  0  0  0  0  0  0  0
   -1.5000    0.0000    0.0000 C   0  0  0  0  0  0  0  0  0  0  0  0
   -0.7500   -1.2990    0.0000 C   0  0  0  0  0  0  0  0  0  0  0  0
   -3.0000    0.0000    0.0000 N   0  0  0  0  0  0  0  0  0  0  0  0
   -3.7500    1.2990    0.0000 C   0  0  0  0  0  0  0  0  0  0  0  0
   -5.2500    1.2990    0.0000 O   0  0  0  0  0  0  0  0  0  0  0  0
   -3.0000    2.5981    0.0000 C   0  0  0  0  0  0  0  0  0  0  0  0
   -1.5000    2.5981    0.0000 O   0  0  0  0  0  0  0  0  0  0  0  0
  1  2  1  0
  2  3  2  0
  3  4  1  0
  4  5  1  0
  5  6  1  0
  6  7  1  0
  7  8  1  0
  7  9  1  0
  7 10  1  0
  4 11  1  0
 11 12  1  0
 12 13  2  0
 13 14  1  0
 14 15  2  0
 15 16  1  0
 15 17  1  0
 17 18  2  0
 11 19  2  0
 19 20  1  0
 20 21  2  0
 21 22  1  0
 22 23  2  0
 23 24  1  0
 24 25  2  0
 24 26  1  0
 26 27  1  0
 27 28  2  0
 27 29  1  0
 29 30  1  0
 19  2  1  0
 25 20  1  0
 18 12  1  0
 30 23  1  0
M  END
>  <assay_chembl_id>  (520) 
CHEMBL3381812

>  <assay_description>  (520) 
Displacement of [3H]testosterone from androgen receptor (unknown origin) expressed in 293 cells after 16 hrs by scintillation counting

>  <parent_molecule_chembl_id>  (520) 
CHEMBL3337831

>  <canonical_smiles>  (520) 
Cc1nn(CCC(C)(F)F)c(-c2ccc(F)cc2)c1-c1ccc2c(c1)NC(=O)CO2

>  <standard_type>  (520) 
IC50

>  <standard_relation>  (520) 
=

>  <standard_value>  (520) 
9200.0

>  <standard_units>  (520) 
nM

>  <target_pref_name>  (520) 
Androgen Receptor

>  <target_chembl_id>  (520) 
CHEMBL1871

>  <target_organism>  (520) 
Homo sapiens

>  <pchembl_median>  (520) 
7.57

$$$$
CHEMBL1393
     RDKit          2D

 29 33  0  0  0  0  0  0  0  0999 V2000
    4.5311    7.1244    0.0000 C   0  0  0  0  0  0  0  0  0  0  0  0
    3.0393    7.2812    0.0000 C   0  0  0  0  0  0  0  0  0  0  0  0
    2.4292    8.6515    0.0000 O   0  0  0  0  0  0  0  0  0  0  0  0
    2.1577    6.0676    0.0000 S   0  0  0  0  0  0  0  0  0  0  0  0
    0.6659    6.2244    0.0000 C   0  0  0  0  0  0  0  0  0  0  0  0
    0.0558    7.5947    0.0000 C   0  0  0  0  0  0  0  0  0  0  0  0
   -1.4360    7.7515    0.0000 C   0  0  0  0  0  0  0  0  0  0  0  0
   -2.0461    9.1218    0.0000 C   0  0  0  0  0  0  0  0  0  0  0  0
   -3.5379    9.2786    0.0000 C   0  0  0  0  0  0  0  0  0  0  0  0
   -4.1480   10.6490    0.0000 O   0  0  0  0  0  0  0  0  0  0  0  0
   -4.4196    8.0651    0.0000 C   0  0  0  0  0  0  0  0  0  0  0  0
   -3.8095    6.6948    0.0000 C   0  0  0  0  0  0  0  0  0  0  0  0
   -2.3177    6.5380    0.0000 C   0  0  0  0  0  0  0  0  0  0  0  0
   -3.1994    5.3245    0.0000 C   0  0  0  0  0  0  0  0  0  0  0  0
   -1.7076    5.1677    0.0000 C   0  0  0  0  0  0  0  0  0  0  0  0
   -2.5893    3.9542    0.0000 C   0  0  0  0  0  0  0  0  0  0  0  0
   -1.9792    2.5838    0.0000 C   0  0  0  0  0  0  0  0  0  0  0  0
   -0.4874    2.4271    0.0000 C   0  0  0  0  0  0  0  0  0  0  0  0
   -1.4252    1.4560    0.0000 C   0  0  0  0  0  0  0  0  0  0  0  0
    0.3943    3.6406    0.0000 C   0  0  0  0  0  0  0  0  0  0  0  0
    1.8209    3.1771    0.0000 C   0  0  0  0  0  0  0  0  0  0  0  0
    1.8209    1.6771    0.0000 C   0  0  0  0  0  0  0  0  0  0  0  0
    0.3943    1.2135    0.0000 C   0  0  0  0  0  0  0  0  0  0  0  0
    1.2760    0.0000    0.0000 C   0  0  0  0  0  0  0  0  0  0  0  0
    0.3943   -1.2135    0.0000 C   0  0  0  0  0  0  0  0  0  0  0  0
   -1.0323   -0.7500    0.0000 C   0  0  0  0  0  0  0  0  0  0  0  0
   -2.2458   -1.6317    0.0000 O   0  0  0  0  0  0  0  0  0  0  0  0
   -1.0323    0.7500    0.0000 O   0  0  0  0  0  0  0  0  0  0  0  0
   -0.2158    5.0109    0.0000 C   0  0  0  0  0  0  0  0  0  0  0  0
  1  2  1  0
  2  3  2  0
  2  4  1  0
  5  4  1  1
  5  6  1  0
  6  7  1  0
  7  8  2  0
  8  9  1  0
  9 10  2  0
  9 11  1  0
 11 12  1  0
 12 13  1  0
 13 14  1  6
 13 15  1  0
 15 16  1  6
 16 17  1  0
 17 18  1  0
 18 19  1  6
 18 20  1  0
 20 21  1  6
 21 22  1  0
 23 22  1  6
 23 24  1  0
 24 25  1  0
 25 26  1  0
 26 27  2  0
 26 28  1  0
 20 29  1  0
 29  5  1  1
 13  7  1  0
 29 15  1  0
 23 18  1  0
 28 23  1  0
M  END
>  <assay_chembl_id>  (521) 
CHEMBL3381812

>  <assay_description>  (521) 
Displacement of [3H]testosterone from androgen receptor (unknown origin) expressed in 293 cells after 16 hrs by scintillation counting

>  <parent_molecule_chembl_id>  (521) 
CHEMBL1393

>  <canonical_smiles>  (521) 
CC(=O)S[C@@H]1CC2=CC(=O)CC[C@]2(C)[C@H]2CC[C@@]3(C)[C@@H](CC[C@@]34CCC(=O)O4)[C@@H]21

>  <standard_type>  (521) 
IC50

>  <standard_relation>  (521) 
=

>  <standard_value>  (521) 
120.0

>  <standard_units>  (521) 
nM

>  <target_pref_name>  (521) 
Androgen Receptor

>  <target_chembl_id>  (521) 
CHEMBL1871

>  <target_organism>  (521) 
Homo sapiens

>  <pchembl_median>  (521) 
5.77

$$$$
CHEMBL3402223
     RDKit          2D

 19 21  0  0  0  0  0  0  0  0999 V2000
   -4.4918   -0.0142    0.0000 C   0  0  0  0  0  0  0  0  0  0  0  0
   -3.8817   -1.3846    0.0000 C   0  0  0  0  0  0  0  0  0  0  0  0
   -2.5826   -0.6346    0.0000 C   0  0  0  0  0  0  0  0  0  0  0  0
   -5.3083   -1.8481    0.0000 C   0  0  0  0  0  0  0  0  0  0  0  0
   -5.3083   -3.3481    0.0000 C   0  0  0  0  0  0  0  0  0  0  0  0
   -3.8817   -3.8116    0.0000 C   0  0  0  0  0  0  0  0  0  0  0  0
   -3.0000   -2.5981    0.0000 N   0  0  0  0  0  0  0  0  0  0  0  0
   -1.5000   -2.5981    0.0000 C   0  0  0  0  0  0  0  0  0  0  0  0
   -0.7500   -3.8971    0.0000 C   0  0  0  0  0  0  0  0  0  0  0  0
    0.7500   -3.8971    0.0000 C   0  0  0  0  0  0  0  0  0  0  0  0
    1.5000   -2.5981    0.0000 C   0  0  0  0  0  0  0  0  0  0  0  0
    3.0000   -2.5981    0.0000 C   0  0  0  0  0  0  0  0  0  0  0  0
    4.5000   -2.5981    0.0000 N   0  0  0  0  0  0  0  0  0  0  0  0
    0.7500   -1.2990    0.0000 C   0  0  0  0  0  0  0  0  0  0  0  0
    1.5000    0.0000    0.0000 C   0  0  0  0  0  0  0  0  0  0  0  0
    0.7500    1.2990    0.0000 C   0  0  0  0  0  0  0  0  0  0  0  0
   -0.7500    1.2990    0.0000 C   0  0  0  0  0  0  0  0  0  0  0  0
   -1.5000    0.0000    0.0000 C   0  0  0  0  0  0  0  0  0  0  0  0
   -0.7500   -1.2990    0.0000 C   0  0  0  0  0  0  0  0  0  0  0  0
  1  2  1  0
  2  3  1  0
  2  4  1  0
  4  5  1  0
  5  6  1  0
  6  7  1  0
  7  8  1  0
  8  9  2  0
  9 10  1  0
 10 11  2  0
 11 12  1  0
 12 13  3  0
 11 14  1  0
 14 15  2  0
 15 16  1  0
 16 17  2  0
 17 18  1  0
 18 19  2  0
  7  2  1  0
 19  8  1  0
 19 14  1  0
M  END
>  <assay_chembl_id>  (522) 
CHEMBL3404787

>  <assay_description>  (522) 
Displacement of [3H]mibolerone from androgen receptor (unknown origin) after 3 hrs

>  <parent_molecule_chembl_id>  (522) 
CHEMBL3402223

>  <canonical_smiles>  (522) 
CC1(C)CCCN1c1ccc(C#N)c2ccccc12

>  <standard_type>  (522) 
IC50

>  <standard_relation>  (522) 
=

>  <standard_value>  (522) 
7.0

>  <standard_units>  (522) 
nM

>  <target_pref_name>  (522) 
Androgen Receptor

>  <target_chembl_id>  (522) 
CHEMBL1871

>  <target_organism>  (522) 
Homo sapiens

>  <pchembl_median>  (522) 
7.85

$$$$
CHEMBL3402222
     RDKit          2D

 18 20  0  0  0  0  0  0  0  0999 V2000
   -3.4182    0.0420    0.0000 C   0  0  0  0  0  0  0  0  0  0  0  0
   -3.8817   -1.3846    0.0000 C   0  0  0  0  0  0  0  0  0  0  0  0
   -5.3083   -1.8481    0.0000 C   0  0  0  0  0  0  0  0  0  0  0  0
   -5.3083   -3.3481    0.0000 C   0  0  0  0  0  0  0  0  0  0  0  0
   -3.8817   -3.8116    0.0000 C   0  0  0  0  0  0  0  0  0  0  0  0
   -3.0000   -2.5981    0.0000 N   0  0  0  0  0  0  0  0  0  0  0  0
   -1.5000   -2.5981    0.0000 C   0  0  0  0  0  0  0  0  0  0  0  0
   -0.7500   -3.8971    0.0000 C   0  0  0  0  0  0  0  0  0  0  0  0
    0.7500   -3.8971    0.0000 C   0  0  0  0  0  0  0  0  0  0  0  0
    1.5000   -2.5981    0.0000 C   0  0  0  0  0  0  0  0  0  0  0  0
    3.0000   -2.5981    0.0000 C   0  0  0  0  0  0  0  0  0  0  0  0
    4.5000   -2.5981    0.0000 N   0  0  0  0  0  0  0  0  0  0  0  0
    0.7500   -1.2990    0.0000 C   0  0  0  0  0  0  0  0  0  0  0  0
    1.5000    0.0000    0.0000 C   0  0  0  0  0  0  0  0  0  0  0  0
    0.7500    1.2990    0.0000 C   0  0  0  0  0  0  0  0  0  0  0  0
   -0.7500    1.2990    0.0000 C   0  0  0  0  0  0  0  0  0  0  0  0
   -1.5000    0.0000    0.0000 C   0  0  0  0  0  0  0  0  0  0  0  0
   -0.7500   -1.2990    0.0000 C   0  0  0  0  0  0  0  0  0  0  0  0
  2  1  1  1
  2  3  1  0
  3  4  1  0
  4  5  1  0
  5  6  1  0
  6  7  1  0
  7  8  2  0
  8  9  1  0
  9 10  2  0
 10 11  1  0
 11 12  3  0
 10 13  1  0
 13 14  2  0
 14 15  1  0
 15 16  2  0
 16 17  1  0
 17 18  2  0
  6  2  1  0
 18  7  1  0
 18 13  1  0
M  END
>  <assay_chembl_id>  (523) 
CHEMBL3404787

>  <assay_description>  (523) 
Displacement of [3H]mibolerone from androgen receptor (unknown origin) after 3 hrs

>  <parent_molecule_chembl_id>  (523) 
CHEMBL3402222

>  <canonical_smiles>  (523) 
C[C@@H]1CCCN1c1ccc(C#N)c2ccccc12

>  <standard_type>  (523) 
IC50

>  <standard_relation>  (523) 
=

>  <standard_value>  (523) 
20.0

>  <standard_units>  (523) 
nM

>  <target_pref_name>  (523) 
Androgen Receptor

>  <target_chembl_id>  (523) 
CHEMBL1871

>  <target_organism>  (523) 
Homo sapiens

>  <pchembl_median>  (523) 
8.72

$$$$
CHEMBL3402221
     RDKit          2D

 18 20  0  0  0  0  0  0  0  0999 V2000
   -3.4182    0.0420    0.0000 C   0  0  0  0  0  0  0  0  0  0  0  0
   -3.8817   -1.3846    0.0000 C   0  0  0  0  0  0  0  0  0  0  0  0
   -5.3083   -1.8481    0.0000 C   0  0  0  0  0  0  0  0  0  0  0  0
   -5.3083   -3.3481    0.0000 C   0  0  0  0  0  0  0  0  0  0  0  0
   -3.8817   -3.8116    0.0000 C   0  0  0  0  0  0  0  0  0  0  0  0
   -3.0000   -2.5981    0.0000 N   0  0  0  0  0  0  0  0  0  0  0  0
   -1.5000   -2.5981    0.0000 C   0  0  0  0  0  0  0  0  0  0  0  0
   -0.7500   -3.8971    0.0000 C   0  0  0  0  0  0  0  0  0  0  0  0
    0.7500   -3.8971    0.0000 C   0  0  0  0  0  0  0  0  0  0  0  0
    1.5000   -2.5981    0.0000 C   0  0  0  0  0  0  0  0  0  0  0  0
    3.0000   -2.5981    0.0000 C   0  0  0  0  0  0  0  0  0  0  0  0
    4.5000   -2.5981    0.0000 N   0  0  0  0  0  0  0  0  0  0  0  0
    0.7500   -1.2990    0.0000 C   0  0  0  0  0  0  0  0  0  0  0  0
    1.5000    0.0000    0.0000 C   0  0  0  0  0  0  0  0  0  0  0  0
    0.7500    1.2990    0.0000 C   0  0  0  0  0  0  0  0  0  0  0  0
   -0.7500    1.2990    0.0000 C   0  0  0  0  0  0  0  0  0  0  0  0
   -1.5000    0.0000    0.0000 C   0  0  0  0  0  0  0  0  0  0  0  0
   -0.7500   -1.2990    0.0000 C   0  0  0  0  0  0  0  0  0  0  0  0
  2  1  1  6
  2  3  1  0
  3  4  1  0
  4  5  1  0
  5  6  1  0
  6  7  1  0
  7  8  2  0
  8  9  1  0
  9 10  2  0
 10 11  1  0
 11 12  3  0
 10 13  1  0
 13 14  2  0
 14 15  1  0
 15 16  2  0
 16 17  1  0
 17 18  2  0
  6  2  1  0
 18  7  1  0
 18 13  1  0
M  END
>  <assay_chembl_id>  (524) 
CHEMBL3404787

>  <assay_description>  (524) 
Displacement of [3H]mibolerone from androgen receptor (unknown origin) after 3 hrs

>  <parent_molecule_chembl_id>  (524) 
CHEMBL3402221

>  <canonical_smiles>  (524) 
C[C@H]1CCCN1c1ccc(C#N)c2ccccc12

>  <standard_type>  (524) 
IC50

>  <standard_relation>  (524) 
=

>  <standard_value>  (524) 
0.84

>  <standard_units>  (524) 
nM

>  <target_pref_name>  (524) 
Androgen Receptor

>  <target_chembl_id>  (524) 
CHEMBL1871

>  <target_organism>  (524) 
Homo sapiens

>  <pchembl_median>  (524) 
6.715

$$$$
CHEMBL570897
     RDKit          2D

 18 20  0  0  0  0  0  0  0  0999 V2000
   -3.7500   -1.2990    0.0000 O   0  0  0  0  0  0  0  0  0  0  0  0
   -3.0000   -2.5981    0.0000 N   0  0  0  0  0  4  0  0  0  0  0  0
   -3.7500   -3.8971    0.0000 O   0  0  0  0  0  1  0  0  0  0  0  0
   -1.5000   -2.5981    0.0000 C   0  0  0  0  0  0  0  0  0  0  0  0
   -0.7500   -3.8971    0.0000 C   0  0  0  0  0  0  0  0  0  0  0  0
    0.7500   -3.8971    0.0000 C   0  0  0  0  0  0  0  0  0  0  0  0
    1.5000   -2.5981    0.0000 C   0  0  0  0  0  0  0  0  0  0  0  0
    3.0000   -2.5981    0.0000 N   0  0  0  0  0  0  0  0  0  0  0  0
    3.8817   -1.3846    0.0000 C   0  0  0  0  0  0  0  0  0  0  0  0
    5.3083   -1.8481    0.0000 C   0  0  0  0  0  0  0  0  0  0  0  0
    5.3083   -3.3481    0.0000 C   0  0  0  0  0  0  0  0  0  0  0  0
    3.8817   -3.8116    0.0000 C   0  0  0  0  0  0  0  0  0  0  0  0
    0.7500   -1.2990    0.0000 C   0  0  0  0  0  0  0  0  0  0  0  0
    1.5000    0.0000    0.0000 C   0  0  0  0  0  0  0  0  0  0  0  0
    0.7500    1.2990    0.0000 C   0  0  0  0  0  0  0  0  0  0  0  0
   -0.7500    1.2990    0.0000 C   0  0  0  0  0  0  0  0  0  0  0  0
   -1.5000    0.0000    0.0000 C   0  0  0  0  0  0  0  0  0  0  0  0
   -0.7500   -1.2990    0.0000 C   0  0  0  0  0  0  0  0  0  0  0  0
  1  2  2  0
  2  3  1  0
  2  4  1  0
  4  5  2  0
  5  6  1  0
  6  7  2  0
  7  8  1  0
  8  9  1  0
  9 10  1  0
 10 11  1  0
 11 12  1  0
  7 13  1  0
 13 14  2  0
 14 15  1  0
 15 16  2  0
 16 17  1  0
 17 18  2  0
 18  4  1  0
 12  8  1  0
 18 13  1  0
M  CHG  2   2   1   3  -1
M  END
>  <assay_chembl_id>  (525) 
CHEMBL3404787

>  <assay_description>  (525) 
Displacement of [3H]mibolerone from androgen receptor (unknown origin) after 3 hrs

>  <parent_molecule_chembl_id>  (525) 
CHEMBL570897

>  <canonical_smiles>  (525) 
O=[N+]([O-])c1ccc(N2CCCC2)c2ccccc12

>  <standard_type>  (525) 
IC50

>  <standard_relation>  (525) 
=

>  <standard_value>  (525) 
2.5

>  <standard_units>  (525) 
nM

>  <target_pref_name>  (525) 
Androgen Receptor

>  <target_chembl_id>  (525) 
CHEMBL1871

>  <target_organism>  (525) 
Homo sapiens

>  <pchembl_median>  (525) 
6.17

$$$$
CHEMBL570898
     RDKit          2D

 17 19  0  0  0  0  0  0  0  0999 V2000
   -4.5000   -2.5981    0.0000 N   0  0  0  0  0  0  0  0  0  0  0  0
   -3.0000   -2.5981    0.0000 C   0  0  0  0  0  0  0  0  0  0  0  0
   -1.5000   -2.5981    0.0000 C   0  0  0  0  0  0  0  0  0  0  0  0
   -0.7500   -3.8971    0.0000 C   0  0  0  0  0  0  0  0  0  0  0  0
    0.7500   -3.8971    0.0000 C   0  0  0  0  0  0  0  0  0  0  0  0
    1.5000   -2.5981    0.0000 C   0  0  0  0  0  0  0  0  0  0  0  0
    3.0000   -2.5981    0.0000 N   0  0  0  0  0  0  0  0  0  0  0  0
    3.8817   -1.3846    0.0000 C   0  0  0  0  0  0  0  0  0  0  0  0
    5.3083   -1.8481    0.0000 C   0  0  0  0  0  0  0  0  0  0  0  0
    5.3083   -3.3481    0.0000 C   0  0  0  0  0  0  0  0  0  0  0  0
    3.8817   -3.8116    0.0000 C   0  0  0  0  0  0  0  0  0  0  0  0
    0.7500   -1.2990    0.0000 C   0  0  0  0  0  0  0  0  0  0  0  0
    1.5000    0.0000    0.0000 C   0  0  0  0  0  0  0  0  0  0  0  0
    0.7500    1.2990    0.0000 C   0  0  0  0  0  0  0  0  0  0  0  0
   -0.7500    1.2990    0.0000 C   0  0  0  0  0  0  0  0  0  0  0  0
   -1.5000    0.0000    0.0000 C   0  0  0  0  0  0  0  0  0  0  0  0
   -0.7500   -1.2990    0.0000 C   0  0  0  0  0  0  0  0  0  0  0  0
  1  2  3  0
  2  3  1  0
  3  4  2  0
  4  5  1  0
  5  6  2  0
  6  7  1  0
  7  8  1  0
  8  9  1  0
  9 10  1  0
 10 11  1  0
  6 12  1  0
 12 13  2  0
 13 14  1  0
 14 15  2  0
 15 16  1  0
 16 17  2  0
 17  3  1  0
 11  7  1  0
 17 12  1  0
M  END
>  <assay_chembl_id>  (526) 
CHEMBL3404787

>  <assay_description>  (526) 
Displacement of [3H]mibolerone from androgen receptor (unknown origin) after 3 hrs

>  <parent_molecule_chembl_id>  (526) 
CHEMBL570898

>  <canonical_smiles>  (526) 
N#Cc1ccc(N2CCCC2)c2ccccc12

>  <standard_type>  (526) 
IC50

>  <standard_relation>  (526) 
=

>  <standard_value>  (526) 
2.5

>  <standard_units>  (526) 
nM

>  <target_pref_name>  (526) 
Androgen Receptor

>  <target_chembl_id>  (526) 
CHEMBL1871

>  <target_organism>  (526) 
Homo sapiens

>  <pchembl_median>  (526) 
7.4

$$$$
CHEMBL3402224
     RDKit          2D

 19 21  0  0  0  0  0  0  0  0999 V2000
   -4.4218    1.1568    0.0000 C   0  0  0  0  0  0  0  0  0  0  0  0
   -3.4182    0.0420    0.0000 C   0  0  0  0  0  0  0  0  0  0  0  0
   -3.8817   -1.3846    0.0000 C   0  0  0  0  0  0  0  0  0  0  0  0
   -5.3083   -1.8481    0.0000 C   0  0  0  0  0  0  0  0  0  0  0  0
   -5.3083   -3.3481    0.0000 C   0  0  0  0  0  0  0  0  0  0  0  0
   -3.8817   -3.8116    0.0000 C   0  0  0  0  0  0  0  0  0  0  0  0
   -3.0000   -2.5981    0.0000 N   0  0  0  0  0  0  0  0  0  0  0  0
   -1.5000   -2.5981    0.0000 C   0  0  0  0  0  0  0  0  0  0  0  0
   -0.7500   -3.8971    0.0000 C   0  0  0  0  0  0  0  0  0  0  0  0
    0.7500   -3.8971    0.0000 C   0  0  0  0  0  0  0  0  0  0  0  0
    1.5000   -2.5981    0.0000 C   0  0  0  0  0  0  0  0  0  0  0  0
    3.0000   -2.5981    0.0000 C   0  0  0  0  0  0  0  0  0  0  0  0
    4.5000   -2.5981    0.0000 N   0  0  0  0  0  0  0  0  0  0  0  0
    0.7500   -1.2990    0.0000 C   0  0  0  0  0  0  0  0  0  0  0  0
    1.5000    0.0000    0.0000 C   0  0  0  0  0  0  0  0  0  0  0  0
    0.7500    1.2990    0.0000 C   0  0  0  0  0  0  0  0  0  0  0  0
   -0.7500    1.2990    0.0000 C   0  0  0  0  0  0  0  0  0  0  0  0
   -1.5000    0.0000    0.0000 C   0  0  0  0  0  0  0  0  0  0  0  0
   -0.7500   -1.2990    0.0000 C   0  0  0  0  0  0  0  0  0  0  0  0
  1  2  1  0
  3  2  1  6
  3  4  1  0
  4  5  1  0
  5  6  1  0
  6  7  1  0
  7  8  1  0
  8  9  2  0
  9 10  1  0
 10 11  2  0
 11 12  1  0
 12 13  3  0
 11 14  1  0
 14 15  2  0
 15 16  1  0
 16 17  2  0
 17 18  1  0
 18 19  2  0
  7  3  1  0
 19  8  1  0
 19 14  1  0
M  END
>  <assay_chembl_id>  (527) 
CHEMBL3404787

>  <assay_description>  (527) 
Displacement of [3H]mibolerone from androgen receptor (unknown origin) after 3 hrs

>  <parent_molecule_chembl_id>  (527) 
CHEMBL3402224

>  <canonical_smiles>  (527) 
CC[C@H]1CCCN1c1ccc(C#N)c2ccccc12

>  <standard_type>  (527) 
IC50

>  <standard_relation>  (527) 
=

>  <standard_value>  (527) 
1.1

>  <standard_units>  (527) 
nM

>  <target_pref_name>  (527) 
Androgen Receptor

>  <target_chembl_id>  (527) 
CHEMBL1871

>  <target_organism>  (527) 
Homo sapiens

>  <pchembl_median>  (527) 
7.7

$$$$
CHEMBL3402225
     RDKit          2D

 20 22  0  0  0  0  0  0  0  0999 V2000
   -4.4218   -6.3529    0.0000 C   0  0  0  0  0  0  0  0  0  0  0  0
   -3.4182   -5.2382    0.0000 C   0  0  0  0  0  0  0  0  0  0  0  0
   -1.9509   -5.5501    0.0000 C   0  0  0  0  0  0  0  0  0  0  0  0
   -3.8817   -3.8116    0.0000 C   0  0  0  0  0  0  0  0  0  0  0  0
   -5.3083   -3.3481    0.0000 C   0  0  0  0  0  0  0  0  0  0  0  0
   -5.3083   -1.8481    0.0000 C   0  0  0  0  0  0  0  0  0  0  0  0
   -3.8817   -1.3846    0.0000 C   0  0  0  0  0  0  0  0  0  0  0  0
   -3.0000   -2.5981    0.0000 N   0  0  0  0  0  0  0  0  0  0  0  0
   -1.5000   -2.5981    0.0000 C   0  0  0  0  0  0  0  0  0  0  0  0
   -0.7500   -3.8971    0.0000 C   0  0  0  0  0  0  0  0  0  0  0  0
    0.7500   -3.8971    0.0000 C   0  0  0  0  0  0  0  0  0  0  0  0
    1.5000   -2.5981    0.0000 C   0  0  0  0  0  0  0  0  0  0  0  0
    3.0000   -2.5981    0.0000 C   0  0  0  0  0  0  0  0  0  0  0  0
    4.5000   -2.5981    0.0000 N   0  0  0  0  0  0  0  0  0  0  0  0
    0.7500   -1.2990    0.0000 C   0  0  0  0  0  0  0  0  0  0  0  0
    1.5000    0.0000    0.0000 C   0  0  0  0  0  0  0  0  0  0  0  0
    0.7500    1.2990    0.0000 C   0  0  0  0  0  0  0  0  0  0  0  0
   -0.7500    1.2990    0.0000 C   0  0  0  0  0  0  0  0  0  0  0  0
   -1.5000    0.0000    0.0000 C   0  0  0  0  0  0  0  0  0  0  0  0
   -0.7500   -1.2990    0.0000 C   0  0  0  0  0  0  0  0  0  0  0  0
  1  2  1  0
  2  3  1  0
  4  2  1  1
  4  5  1  0
  5  6  1  0
  6  7  1  0
  7  8  1  0
  8  9  1  0
  9 10  2  0
 10 11  1  0
 11 12  2  0
 12 13  1  0
 13 14  3  0
 12 15  1  0
 15 16  2  0
 16 17  1  0
 17 18  2  0
 18 19  1  0
 19 20  2  0
  8  4  1  0
 20  9  1  0
 20 15  1  0
M  END
>  <assay_chembl_id>  (528) 
CHEMBL3404787

>  <assay_description>  (528) 
Displacement of [3H]mibolerone from androgen receptor (unknown origin) after 3 hrs

>  <parent_molecule_chembl_id>  (528) 
CHEMBL3402225

>  <canonical_smiles>  (528) 
CC(C)[C@H]1CCCN1c1ccc(C#N)c2ccccc12

>  <standard_type>  (528) 
IC50

>  <standard_relation>  (528) 
=

>  <standard_value>  (528) 
1.4

>  <standard_units>  (528) 
nM

>  <target_pref_name>  (528) 
Androgen Receptor

>  <target_chembl_id>  (528) 
CHEMBL1871

>  <target_organism>  (528) 
Homo sapiens

>  <pchembl_median>  (528) 
7.42

$$$$
CHEMBL3402226
     RDKit          2D

 20 22  0  0  0  0  0  0  0  0999 V2000
   -4.5000   -2.5981    0.0000 N   0  0  0  0  0  0  0  0  0  0  0  0
   -3.0000   -2.5981    0.0000 C   0  0  0  0  0  0  0  0  0  0  0  0
   -1.5000   -2.5981    0.0000 C   0  0  0  0  0  0  0  0  0  0  0  0
   -0.7500   -3.8971    0.0000 C   0  0  0  0  0  0  0  0  0  0  0  0
    0.7500   -3.8971    0.0000 C   0  0  0  0  0  0  0  0  0  0  0  0
    1.5000   -2.5981    0.0000 C   0  0  0  0  0  0  0  0  0  0  0  0
    3.0000   -2.5981    0.0000 N   0  0  0  0  0  0  0  0  0  0  0  0
    3.8817   -1.3846    0.0000 C   0  0  0  0  0  0  0  0  0  0  0  0
    5.3083   -1.8481    0.0000 C   0  0  0  0  0  0  0  0  0  0  0  0
    5.3083   -3.3481    0.0000 C   0  0  0  0  0  0  0  0  0  0  0  0
    3.8817   -3.8116    0.0000 C   0  0  0  0  0  0  0  0  0  0  0  0
    3.4182   -5.2382    0.0000 C   0  0  0  0  0  0  0  0  0  0  0  0
    4.4218   -6.3529    0.0000 N   0  0  0  0  0  0  0  0  0  0  0  0
    1.9509   -5.5501    0.0000 O   0  0  0  0  0  0  0  0  0  0  0  0
    0.7500   -1.2990    0.0000 C   0  0  0  0  0  0  0  0  0  0  0  0
    1.5000    0.0000    0.0000 C   0  0  0  0  0  0  0  0  0  0  0  0
    0.7500    1.2990    0.0000 C   0  0  0  0  0  0  0  0  0  0  0  0
   -0.7500    1.2990    0.0000 C   0  0  0  0  0  0  0  0  0  0  0  0
   -1.5000    0.0000    0.0000 C   0  0  0  0  0  0  0  0  0  0  0  0
   -0.7500   -1.2990    0.0000 C   0  0  0  0  0  0  0  0  0  0  0  0
  1  2  3  0
  2  3  1  0
  3  4  2  0
  4  5  1  0
  5  6  2  0
  6  7  1  0
  7  8  1  0
  8  9  1  0
  9 10  1  0
 10 11  1  0
 11 12  1  6
 12 13  1  0
 12 14  2  0
  6 15  1  0
 15 16  2  0
 16 17  1  0
 17 18  2  0
 18 19  1  0
 19 20  2  0
 20  3  1  0
 11  7  1  0
 20 15  1  0
M  END
>  <assay_chembl_id>  (529) 
CHEMBL3404787

>  <assay_description>  (529) 
Displacement of [3H]mibolerone from androgen receptor (unknown origin) after 3 hrs

>  <parent_molecule_chembl_id>  (529) 
CHEMBL3402226

>  <canonical_smiles>  (529) 
N#Cc1ccc(N2CCC[C@@H]2C(N)=O)c2ccccc12

>  <standard_type>  (529) 
IC50

>  <standard_relation>  (529) 
=

>  <standard_value>  (529) 
34.0

>  <standard_units>  (529) 
nM

>  <target_pref_name>  (529) 
Androgen Receptor

>  <target_chembl_id>  (529) 
CHEMBL1871

>  <target_organism>  (529) 
Homo sapiens

>  <pchembl_median>  (529) 
7.96

$$$$
CHEMBL3402227
     RDKit          2D

 19 21  0  0  0  0  0  0  0  0999 V2000
   -4.5000   -2.5981    0.0000 N   0  0  0  0  0  0  0  0  0  0  0  0
   -3.0000   -2.5981    0.0000 C   0  0  0  0  0  0  0  0  0  0  0  0
   -1.5000   -2.5981    0.0000 C   0  0  0  0  0  0  0  0  0  0  0  0
   -0.7500   -3.8971    0.0000 C   0  0  0  0  0  0  0  0  0  0  0  0
    0.7500   -3.8971    0.0000 C   0  0  0  0  0  0  0  0  0  0  0  0
    1.5000   -2.5981    0.0000 C   0  0  0  0  0  0  0  0  0  0  0  0
    3.0000   -2.5981    0.0000 N   0  0  0  0  0  0  0  0  0  0  0  0
    3.8817   -1.3846    0.0000 C   0  0  0  0  0  0  0  0  0  0  0  0
    5.3083   -1.8481    0.0000 C   0  0  0  0  0  0  0  0  0  0  0  0
    5.3083   -3.3481    0.0000 C   0  0  0  0  0  0  0  0  0  0  0  0
    3.8817   -3.8116    0.0000 C   0  0  0  0  0  0  0  0  0  0  0  0
    3.4182   -5.2382    0.0000 C   0  0  0  0  0  0  0  0  0  0  0  0
    2.9546   -6.6648    0.0000 N   0  0  0  0  0  0  0  0  0  0  0  0
    0.7500   -1.2990    0.0000 C   0  0  0  0  0  0  0  0  0  0  0  0
    1.5000    0.0000    0.0000 C   0  0  0  0  0  0  0  0  0  0  0  0
    0.7500    1.2990    0.0000 C   0  0  0  0  0  0  0  0  0  0  0  0
   -0.7500    1.2990    0.0000 C   0  0  0  0  0  0  0  0  0  0  0  0
   -1.5000    0.0000    0.0000 C   0  0  0  0  0  0  0  0  0  0  0  0
   -0.7500   -1.2990    0.0000 C   0  0  0  0  0  0  0  0  0  0  0  0
  1  2  3  0
  2  3  1  0
  3  4  2  0
  4  5  1  0
  5  6  2  0
  6  7  1  0
  7  8  1  0
  8  9  1  0
  9 10  1  0
 10 11  1  0
 11 12  1  6
 12 13  3  0
  6 14  1  0
 14 15  2  0
 15 16  1  0
 16 17  2  0
 17 18  1  0
 18 19  2  0
 19  3  1  0
 11  7  1  0
 19 14  1  0
M  END
>  <assay_chembl_id>  (530) 
CHEMBL3404787

>  <assay_description>  (530) 
Displacement of [3H]mibolerone from androgen receptor (unknown origin) after 3 hrs

>  <parent_molecule_chembl_id>  (530) 
CHEMBL3402227

>  <canonical_smiles>  (530) 
N#Cc1ccc(N2CCC[C@@H]2C#N)c2ccccc12

>  <standard_type>  (530) 
IC50

>  <standard_relation>  (530) 
=

>  <standard_value>  (530) 
1.0

>  <standard_units>  (530) 
nM

>  <target_pref_name>  (530) 
Androgen Receptor

>  <target_chembl_id>  (530) 
CHEMBL1871

>  <target_organism>  (530) 
Homo sapiens

>  <pchembl_median>  (530) 
7.05

$$$$
CHEMBL3402228
     RDKit          2D

 19 21  0  0  0  0  0  0  0  0999 V2000
   -3.4182    0.0420    0.0000 C   0  0  0  0  0  0  0  0  0  0  0  0
   -3.8817   -1.3846    0.0000 C   0  0  0  0  0  0  0  0  0  0  0  0
   -5.3083   -1.8481    0.0000 C   0  0  0  0  0  0  0  0  0  0  0  0
   -6.5218   -0.9664    0.0000 O   0  0  0  0  0  0  0  0  0  0  0  0
   -5.3083   -3.3481    0.0000 C   0  0  0  0  0  0  0  0  0  0  0  0
   -3.8817   -3.8116    0.0000 C   0  0  0  0  0  0  0  0  0  0  0  0
   -3.0000   -2.5981    0.0000 N   0  0  0  0  0  0  0  0  0  0  0  0
   -1.5000   -2.5981    0.0000 C   0  0  0  0  0  0  0  0  0  0  0  0
   -0.7500   -3.8971    0.0000 C   0  0  0  0  0  0  0  0  0  0  0  0
    0.7500   -3.8971    0.0000 C   0  0  0  0  0  0  0  0  0  0  0  0
    1.5000   -2.5981    0.0000 C   0  0  0  0  0  0  0  0  0  0  0  0
    3.0000   -2.5981    0.0000 C   0  0  0  0  0  0  0  0  0  0  0  0
    4.5000   -2.5981    0.0000 N   0  0  0  0  0  0  0  0  0  0  0  0
    0.7500   -1.2990    0.0000 C   0  0  0  0  0  0  0  0  0  0  0  0
    1.5000    0.0000    0.0000 C   0  0  0  0  0  0  0  0  0  0  0  0
    0.7500    1.2990    0.0000 C   0  0  0  0  0  0  0  0  0  0  0  0
   -0.7500    1.2990    0.0000 C   0  0  0  0  0  0  0  0  0  0  0  0
   -1.5000    0.0000    0.0000 C   0  0  0  0  0  0  0  0  0  0  0  0
   -0.7500   -1.2990    0.0000 C   0  0  0  0  0  0  0  0  0  0  0  0
  2  1  1  6
  2  3  1  0
  3  4  1  6
  3  5  1  0
  5  6  1  0
  6  7  1  0
  7  8  1  0
  8  9  2  0
  9 10  1  0
 10 11  2  0
 11 12  1  0
 12 13  3  0
 11 14  1  0
 14 15  2  0
 15 16  1  0
 16 17  2  0
 17 18  1  0
 18 19  2  0
  7  2  1  0
 19  8  1  0
 19 14  1  0
M  END
>  <assay_chembl_id>  (531) 
CHEMBL3404787

>  <assay_description>  (531) 
Displacement of [3H]mibolerone from androgen receptor (unknown origin) after 3 hrs

>  <parent_molecule_chembl_id>  (531) 
CHEMBL3402228

>  <canonical_smiles>  (531) 
C[C@H]1[C@@H](O)CCN1c1ccc(C#N)c2ccccc12

>  <standard_type>  (531) 
IC50

>  <standard_relation>  (531) 
=

>  <standard_value>  (531) 
2.2

>  <standard_units>  (531) 
nM

>  <target_pref_name>  (531) 
Androgen Receptor

>  <target_chembl_id>  (531) 
CHEMBL1871

>  <target_organism>  (531) 
Homo sapiens

>  <pchembl_median>  (531) 
8.15

$$$$
CHEMBL3402229
     RDKit          2D

 19 21  0  0  0  0  0  0  0  0999 V2000
   -3.4182    0.0420    0.0000 C   0  0  0  0  0  0  0  0  0  0  0  0
   -3.8817   -1.3846    0.0000 C   0  0  0  0  0  0  0  0  0  0  0  0
   -5.3083   -1.8481    0.0000 C   0  0  0  0  0  0  0  0  0  0  0  0
   -6.5218   -0.9664    0.0000 O   0  0  0  0  0  0  0  0  0  0  0  0
   -5.3083   -3.3481    0.0000 C   0  0  0  0  0  0  0  0  0  0  0  0
   -3.8817   -3.8116    0.0000 C   0  0  0  0  0  0  0  0  0  0  0  0
   -3.0000   -2.5981    0.0000 N   0  0  0  0  0  0  0  0  0  0  0  0
   -1.5000   -2.5981    0.0000 C   0  0  0  0  0  0  0  0  0  0  0  0
   -0.7500   -3.8971    0.0000 C   0  0  0  0  0  0  0  0  0  0  0  0
    0.7500   -3.8971    0.0000 C   0  0  0  0  0  0  0  0  0  0  0  0
    1.5000   -2.5981    0.0000 C   0  0  0  0  0  0  0  0  0  0  0  0
    3.0000   -2.5981    0.0000 C   0  0  0  0  0  0  0  0  0  0  0  0
    4.5000   -2.5981    0.0000 N   0  0  0  0  0  0  0  0  0  0  0  0
    0.7500   -1.2990    0.0000 C   0  0  0  0  0  0  0  0  0  0  0  0
    1.5000    0.0000    0.0000 C   0  0  0  0  0  0  0  0  0  0  0  0
    0.7500    1.2990    0.0000 C   0  0  0  0  0  0  0  0  0  0  0  0
   -0.7500    1.2990    0.0000 C   0  0  0  0  0  0  0  0  0  0  0  0
   -1.5000    0.0000    0.0000 C   0  0  0  0  0  0  0  0  0  0  0  0
   -0.7500   -1.2990    0.0000 C   0  0  0  0  0  0  0  0  0  0  0  0
  2  1  1  6
  2  3  1  0
  3  4  1  1
  3  5  1  0
  5  6  1  0
  6  7  1  0
  7  8  1  0
  8  9  2  0
  9 10  1  0
 10 11  2  0
 11 12  1  0
 12 13  3  0
 11 14  1  0
 14 15  2  0
 15 16  1  0
 16 17  2  0
 17 18  1  0
 18 19  2  0
  7  2  1  0
 19  8  1  0
 19 14  1  0
M  END
>  <assay_chembl_id>  (532) 
CHEMBL3404787

>  <assay_description>  (532) 
Displacement of [3H]mibolerone from androgen receptor (unknown origin) after 3 hrs

>  <parent_molecule_chembl_id>  (532) 
CHEMBL3402229

>  <canonical_smiles>  (532) 
C[C@H]1[C@H](O)CCN1c1ccc(C#N)c2ccccc12

>  <standard_type>  (532) 
IC50

>  <standard_relation>  (532) 
=

>  <standard_value>  (532) 
2.4

>  <standard_units>  (532) 
nM

>  <target_pref_name>  (532) 
Androgen Receptor

>  <target_chembl_id>  (532) 
CHEMBL1871

>  <target_organism>  (532) 
Homo sapiens

>  <pchembl_median>  (532) 
8.15

$$$$
CHEMBL3402230
     RDKit          2D

 19 21  0  0  0  0  0  0  0  0999 V2000
   -3.4182    0.0420    0.0000 C   0  0  0  0  0  0  0  0  0  0  0  0
   -3.8817   -1.3846    0.0000 C   0  0  0  0  0  0  0  0  0  0  0  0
   -5.3083   -1.8481    0.0000 C   0  0  0  0  0  0  0  0  0  0  0  0
   -6.5218   -0.9664    0.0000 O   0  0  0  0  0  0  0  0  0  0  0  0
   -5.3083   -3.3481    0.0000 C   0  0  0  0  0  0  0  0  0  0  0  0
   -3.8817   -3.8116    0.0000 C   0  0  0  0  0  0  0  0  0  0  0  0
   -3.0000   -2.5981    0.0000 N   0  0  0  0  0  0  0  0  0  0  0  0
   -1.5000   -2.5981    0.0000 C   0  0  0  0  0  0  0  0  0  0  0  0
   -0.7500   -3.8971    0.0000 C   0  0  0  0  0  0  0  0  0  0  0  0
    0.7500   -3.8971    0.0000 C   0  0  0  0  0  0  0  0  0  0  0  0
    1.5000   -2.5981    0.0000 C   0  0  0  0  0  0  0  0  0  0  0  0
    3.0000   -2.5981    0.0000 C   0  0  0  0  0  0  0  0  0  0  0  0
    4.5000   -2.5981    0.0000 N   0  0  0  0  0  0  0  0  0  0  0  0
    0.7500   -1.2990    0.0000 C   0  0  0  0  0  0  0  0  0  0  0  0
    1.5000    0.0000    0.0000 C   0  0  0  0  0  0  0  0  0  0  0  0
    0.7500    1.2990    0.0000 C   0  0  0  0  0  0  0  0  0  0  0  0
   -0.7500    1.2990    0.0000 C   0  0  0  0  0  0  0  0  0  0  0  0
   -1.5000    0.0000    0.0000 C   0  0  0  0  0  0  0  0  0  0  0  0
   -0.7500   -1.2990    0.0000 C   0  0  0  0  0  0  0  0  0  0  0  0
  2  1  1  6
  2  3  1  0
  3  4  2  0
  3  5  1  0
  5  6  1  0
  6  7  1  0
  7  8  1  0
  8  9  2  0
  9 10  1  0
 10 11  2  0
 11 12  1  0
 12 13  3  0
 11 14  1  0
 14 15  2  0
 15 16  1  0
 16 17  2  0
 17 18  1  0
 18 19  2  0
  7  2  1  0
 19  8  1  0
 19 14  1  0
M  END
>  <assay_chembl_id>  (533) 
CHEMBL3404787

>  <assay_description>  (533) 
Displacement of [3H]mibolerone from androgen receptor (unknown origin) after 3 hrs

>  <parent_molecule_chembl_id>  (533) 
CHEMBL3402230

>  <canonical_smiles>  (533) 
C[C@H]1C(=O)CCN1c1ccc(C#N)c2ccccc12

>  <standard_type>  (533) 
IC50

>  <standard_relation>  (533) 
=

>  <standard_value>  (533) 
37.0

>  <standard_units>  (533) 
nM

>  <target_pref_name>  (533) 
Androgen Receptor

>  <target_chembl_id>  (533) 
CHEMBL1871

>  <target_organism>  (533) 
Homo sapiens

>  <pchembl_median>  (533) 
6.47

$$$$
CHEMBL3402231
     RDKit          2D

 20 22  0  0  0  0  0  0  0  0999 V2000
   -3.4182    0.0420    0.0000 C   0  0  0  0  0  0  0  0  0  0  0  0
   -3.8817   -1.3846    0.0000 C   0  0  0  0  0  0  0  0  0  0  0  0
   -5.3083   -1.8481    0.0000 C   0  0  0  0  0  0  0  0  0  0  0  0
   -6.5218   -0.9664    0.0000 C   0  0  0  0  0  0  0  0  0  0  0  0
   -7.8921   -1.5765    0.0000 O   0  0  0  0  0  0  0  0  0  0  0  0
   -5.3083   -3.3481    0.0000 C   0  0  0  0  0  0  0  0  0  0  0  0
   -3.8817   -3.8116    0.0000 C   0  0  0  0  0  0  0  0  0  0  0  0
   -3.0000   -2.5981    0.0000 N   0  0  0  0  0  0  0  0  0  0  0  0
   -1.5000   -2.5981    0.0000 C   0  0  0  0  0  0  0  0  0  0  0  0
   -0.7500   -3.8971    0.0000 C   0  0  0  0  0  0  0  0  0  0  0  0
    0.7500   -3.8971    0.0000 C   0  0  0  0  0  0  0  0  0  0  0  0
    1.5000   -2.5981    0.0000 C   0  0  0  0  0  0  0  0  0  0  0  0
    3.0000   -2.5981    0.0000 C   0  0  0  0  0  0  0  0  0  0  0  0
    4.5000   -2.5981    0.0000 N   0  0  0  0  0  0  0  0  0  0  0  0
    0.7500   -1.2990    0.0000 C   0  0  0  0  0  0  0  0  0  0  0  0
    1.5000    0.0000    0.0000 C   0  0  0  0  0  0  0  0  0  0  0  0
    0.7500    1.2990    0.0000 C   0  0  0  0  0  0  0  0  0  0  0  0
   -0.7500    1.2990    0.0000 C   0  0  0  0  0  0  0  0  0  0  0  0
   -1.5000    0.0000    0.0000 C   0  0  0  0  0  0  0  0  0  0  0  0
   -0.7500   -1.2990    0.0000 C   0  0  0  0  0  0  0  0  0  0  0  0
  2  1  1  6
  2  3  1  0
  3  4  1  6
  4  5  1  0
  3  6  1  0
  6  7  1  0
  7  8  1  0
  8  9  1  0
  9 10  2  0
 10 11  1  0
 11 12  2  0
 12 13  1  0
 13 14  3  0
 12 15  1  0
 15 16  2  0
 16 17  1  0
 17 18  2  0
 18 19  1  0
 19 20  2  0
  8  2  1  0
 20  9  1  0
 20 15  1  0
M  END
>  <assay_chembl_id>  (534) 
CHEMBL3404787

>  <assay_description>  (534) 
Displacement of [3H]mibolerone from androgen receptor (unknown origin) after 3 hrs

>  <parent_molecule_chembl_id>  (534) 
CHEMBL3402231

>  <canonical_smiles>  (534) 
C[C@H]1[C@@H](CO)CCN1c1ccc(C#N)c2ccccc12

>  <standard_type>  (534) 
IC50

>  <standard_relation>  (534) 
=

>  <standard_value>  (534) 
4.1

>  <standard_units>  (534) 
nM

>  <target_pref_name>  (534) 
Androgen Receptor

>  <target_chembl_id>  (534) 
CHEMBL1871

>  <target_organism>  (534) 
Homo sapiens

>  <pchembl_median>  (534) 
6.11

$$$$
CHEMBL3402232
     RDKit          2D

 22 24  0  0  0  0  0  0  0  0999 V2000
   -3.4182    0.0420    0.0000 C   0  0  0  0  0  0  0  0  0  0  0  0
   -3.8817   -1.3846    0.0000 C   0  0  0  0  0  0  0  0  0  0  0  0
   -5.3083   -1.8481    0.0000 C   0  0  0  0  0  0  0  0  0  0  0  0
   -6.5218   -0.9664    0.0000 C   0  0  0  0  0  0  0  0  0  0  0  0
   -5.6401    0.2471    0.0000 C   0  0  0  0  0  0  0  0  0  0  0  0
   -7.4035   -2.1799    0.0000 C   0  0  0  0  0  0  0  0  0  0  0  0
   -7.7353   -0.0847    0.0000 O   0  0  0  0  0  0  0  0  0  0  0  0
   -5.3083   -3.3481    0.0000 C   0  0  0  0  0  0  0  0  0  0  0  0
   -3.8817   -3.8116    0.0000 C   0  0  0  0  0  0  0  0  0  0  0  0
   -3.0000   -2.5981    0.0000 N   0  0  0  0  0  0  0  0  0  0  0  0
   -1.5000   -2.5981    0.0000 C   0  0  0  0  0  0  0  0  0  0  0  0
   -0.7500   -3.8971    0.0000 C   0  0  0  0  0  0  0  0  0  0  0  0
    0.7500   -3.8971    0.0000 C   0  0  0  0  0  0  0  0  0  0  0  0
    1.5000   -2.5981    0.0000 C   0  0  0  0  0  0  0  0  0  0  0  0
    3.0000   -2.5981    0.0000 C   0  0  0  0  0  0  0  0  0  0  0  0
    4.5000   -2.5981    0.0000 N   0  0  0  0  0  0  0  0  0  0  0  0
    0.7500   -1.2990    0.0000 C   0  0  0  0  0  0  0  0  0  0  0  0
    1.5000    0.0000    0.0000 C   0  0  0  0  0  0  0  0  0  0  0  0
    0.7500    1.2990    0.0000 C   0  0  0  0  0  0  0  0  0  0  0  0
   -0.7500    1.2990    0.0000 C   0  0  0  0  0  0  0  0  0  0  0  0
   -1.5000    0.0000    0.0000 C   0  0  0  0  0  0  0  0  0  0  0  0
   -0.7500   -1.2990    0.0000 C   0  0  0  0  0  0  0  0  0  0  0  0
  2  1  1  6
  2  3  1  0
  3  4  1  6
  4  5  1  0
  4  6  1  0
  4  7  1  0
  3  8  1  0
  8  9  1  0
  9 10  1  0
 10 11  1  0
 11 12  2  0
 12 13  1  0
 13 14  2  0
 14 15  1  0
 15 16  3  0
 14 17  1  0
 17 18  2  0
 18 19  1  0
 19 20  2  0
 20 21  1  0
 21 22  2  0
 10  2  1  0
 22 11  1  0
 22 17  1  0
M  END
>  <assay_chembl_id>  (535) 
CHEMBL3404787

>  <assay_description>  (535) 
Displacement of [3H]mibolerone from androgen receptor (unknown origin) after 3 hrs

>  <parent_molecule_chembl_id>  (535) 
CHEMBL3402232

>  <canonical_smiles>  (535) 
C[C@H]1[C@@H](C(C)(C)O)CCN1c1ccc(C#N)c2ccccc12

>  <standard_type>  (535) 
IC50

>  <standard_relation>  (535) 
=

>  <standard_value>  (535) 
1.4

>  <standard_units>  (535) 
nM

>  <target_pref_name>  (535) 
Androgen Receptor

>  <target_chembl_id>  (535) 
CHEMBL1871

>  <target_organism>  (535) 
Homo sapiens

>  <pchembl_median>  (535) 
6.46

$$$$
CHEMBL3402233
     RDKit          2D

 22 24  0  0  0  0  0  0  0  0999 V2000
   -7.5785    1.4071    0.0000 C   0  0  0  0  0  0  0  0  0  0  0  0
   -6.3650    0.5254    0.0000 O   0  0  0  0  0  0  0  0  0  0  0  0
   -6.5218   -0.9664    0.0000 C   0  0  0  0  0  0  0  0  0  0  0  0
   -7.8921   -1.5765    0.0000 O   0  0  0  0  0  0  0  0  0  0  0  0
   -5.3083   -1.8481    0.0000 C   0  0  0  0  0  0  0  0  0  0  0  0
   -5.3083   -3.3481    0.0000 C   0  0  0  0  0  0  0  0  0  0  0  0
   -3.8817   -3.8116    0.0000 C   0  0  0  0  0  0  0  0  0  0  0  0
   -3.0000   -2.5981    0.0000 N   0  0  0  0  0  0  0  0  0  0  0  0
   -1.5000   -2.5981    0.0000 C   0  0  0  0  0  0  0  0  0  0  0  0
   -0.7500   -3.8971    0.0000 C   0  0  0  0  0  0  0  0  0  0  0  0
    0.7500   -3.8971    0.0000 C   0  0  0  0  0  0  0  0  0  0  0  0
    1.5000   -2.5981    0.0000 C   0  0  0  0  0  0  0  0  0  0  0  0
    3.0000   -2.5981    0.0000 C   0  0  0  0  0  0  0  0  0  0  0  0
    4.5000   -2.5981    0.0000 N   0  0  0  0  0  0  0  0  0  0  0  0
    0.7500   -1.2990    0.0000 C   0  0  0  0  0  0  0  0  0  0  0  0
    1.5000    0.0000    0.0000 C   0  0  0  0  0  0  0  0  0  0  0  0
    0.7500    1.2990    0.0000 C   0  0  0  0  0  0  0  0  0  0  0  0
   -0.7500    1.2990    0.0000 C   0  0  0  0  0  0  0  0  0  0  0  0
   -1.5000    0.0000    0.0000 C   0  0  0  0  0  0  0  0  0  0  0  0
   -0.7500   -1.2990    0.0000 C   0  0  0  0  0  0  0  0  0  0  0  0
   -3.8817   -1.3846    0.0000 C   0  0  0  0  0  0  0  0  0  0  0  0
   -3.4182    0.0420    0.0000 C   0  0  0  0  0  0  0  0  0  0  0  0
  1  2  1  0
  2  3  1  0
  3  4  2  0
  5  3  1  6
  5  6  1  0
  6  7  1  0
  7  8  1  0
  8  9  1  0
  9 10  2  0
 10 11  1  0
 11 12  2  0
 12 13  1  0
 13 14  3  0
 12 15  1  0
 15 16  2  0
 16 17  1  0
 17 18  2  0
 18 19  1  0
 19 20  2  0
  8 21  1  0
 21 22  1  6
 21  5  1  0
 20  9  1  0
 20 15  1  0
M  END
>  <assay_chembl_id>  (536) 
CHEMBL3404787

>  <assay_description>  (536) 
Displacement of [3H]mibolerone from androgen receptor (unknown origin) after 3 hrs

>  <parent_molecule_chembl_id>  (536) 
CHEMBL3402233

>  <canonical_smiles>  (536) 
COC(=O)[C@H]1CCN(c2ccc(C#N)c3ccccc23)[C@H]1C

>  <standard_type>  (536) 
IC50

>  <standard_relation>  (536) 
=

>  <standard_value>  (536) 
7.5

>  <standard_units>  (536) 
nM

>  <target_pref_name>  (536) 
Androgen Receptor

>  <target_chembl_id>  (536) 
CHEMBL1871

>  <target_organism>  (536) 
Homo sapiens

>  <pchembl_median>  (536) 
7.22

$$$$
CHEMBL3578271
     RDKit          2D

 33 37  0  0  0  0  0  0  0  0999 V2000
   -2.5143   -9.4264    0.0000 C   0  0  0  0  0  0  0  0  0  0  0  0
   -1.1440   -8.8163    0.0000 C   0  0  0  0  0  0  0  0  0  0  0  0
    0.0696   -9.6980    0.0000 C   0  0  0  0  0  0  0  0  0  0  0  0
   -0.0872  -11.1898    0.0000 C   0  0  0  0  0  0  0  0  0  0  0  0
    1.1263  -12.0714    0.0000 C   0  0  0  0  0  0  0  0  0  0  0  0
    2.4966  -11.4613    0.0000 C   0  0  0  0  0  0  0  0  0  0  0  0
    3.7101  -12.3430    0.0000 F   0  0  0  0  0  0  0  0  0  0  0  0
    2.6534   -9.9696    0.0000 C   0  0  0  0  0  0  0  0  0  0  0  0
    1.4399   -9.0879    0.0000 C   0  0  0  0  0  0  0  0  0  0  0  0
   -0.9872   -7.3245    0.0000 N   0  0  0  0  0  0  0  0  0  0  0  0
   -2.1019   -6.3208    0.0000 C   0  0  0  0  0  0  0  0  0  0  0  0
   -3.5691   -6.6327    0.0000 O   0  0  0  0  0  0  0  0  0  0  0  0
   -1.4918   -4.9505    0.0000 O   0  0  0  0  0  0  0  0  0  0  0  0
   -0.0000   -5.1073    0.0000 C   0  0  0  0  0  0  0  0  0  0  0  0
    1.4918   -4.9505    0.0000 C   0  0  0  0  0  0  0  0  0  0  0  0
    2.3735   -6.1640    0.0000 C   0  0  0  0  0  0  0  0  0  0  0  0
    3.8652   -6.0072    0.0000 C   0  0  0  0  0  0  0  0  0  0  0  0
    4.7469   -7.2208    0.0000 C   0  0  0  0  0  0  0  0  0  0  0  0
    4.1368   -8.5911    0.0000 C   0  0  0  0  0  0  0  0  0  0  0  0
    2.6450   -8.7479    0.0000 C   0  0  0  0  0  0  0  0  0  0  0  0
    1.7634   -7.5344    0.0000 C   0  0  0  0  0  0  0  0  0  0  0  0
   -0.0000   -3.6073    0.0000 C   0  0  0  0  0  0  0  0  0  0  0  0
    1.2135   -2.7256    0.0000 N   0  0  0  0  0  0  0  0  0  0  0  0
    0.7500   -1.2990    0.0000 C   0  0  0  0  0  0  0  0  0  0  0  0
    1.5000    0.0000    0.0000 C   0  0  0  0  0  0  0  0  0  0  0  0
    0.7500    1.2990    0.0000 C   0  0  0  0  0  0  0  0  0  0  0  0
    1.5000    2.5981    0.0000 Cl  0  0  0  0  0  0  0  0  0  0  0  0
   -0.7500    1.2990    0.0000 C   0  0  0  0  0  0  0  0  0  0  0  0
   -1.5000    0.0000    0.0000 C   0  0  0  0  0  0  0  0  0  0  0  0
   -0.7500   -1.2990    0.0000 C   0  0  0  0  0  0  0  0  0  0  0  0
   -1.2135   -2.7256    0.0000 N   0  0  0  0  0  0  0  0  0  0  0  0
    0.3119   -6.5745    0.0000 C   0  0  0  0  0  0  0  0  0  0  0  0
    1.0098   -7.1199    0.0000 O   0  0  0  0  0  0  0  0  0  0  0  0
  2  1  1  1
  2  3  1  0
  3  4  2  0
  4  5  1  0
  5  6  2  0
  6  7  1  0
  6  8  1  0
  8  9  2  0
  2 10  1  0
 10 11  1  0
 11 12  2  0
 11 13  1  0
 13 14  1  0
 14 15  1  1
 15 16  1  0
 16 17  2  0
 17 18  1  0
 18 19  2  0
 19 20  1  0
 20 21  2  0
 14 22  1  0
 22 23  2  0
 23 24  1  0
 24 25  2  0
 25 26  1  0
 26 27  1  0
 26 28  2  0
 28 29  1  0
 29 30  2  0
 30 31  1  0
 14 32  1  0
 32 33  2  0
  9  3  1  0
 32 10  1  0
 21 16  1  0
 31 22  1  0
 30 24  1  0
M  END
>  <assay_chembl_id>  (537) 
CHEMBL3579176

>  <assay_description>  (537) 
Antagonist activity at human androgen receptor expressed in CHOK1 cells assessed as inhibition of D(-)-norgestrel-induced protein interaction with steroid receptor co-activator peptide after 24 hrs by beta-galactosidase reporter gene assay

>  <parent_molecule_chembl_id>  (537) 
CHEMBL3578271

>  <canonical_smiles>  (537) 
C[C@H](c1ccc(F)cc1)N1C(=O)O[C@](Cc2ccccc2)(c2nc3cc(Cl)ccc3[nH]2)C1=O

>  <standard_type>  (537) 
IC50

>  <standard_relation>  (537) 
=

>  <standard_value>  (537) 
3100.0

>  <standard_units>  (537) 
nM

>  <target_pref_name>  (537) 
Androgen Receptor

>  <target_chembl_id>  (537) 
CHEMBL1871

>  <target_organism>  (537) 
Homo sapiens

>  <pchembl_median>  (537) 
4.64

$$$$
CHEMBL3578274
     RDKit          2D

 36 40  0  0  0  0  0  0  0  0999 V2000
   -2.5143   -9.4264    0.0000 C   0  0  0  0  0  0  0  0  0  0  0  0
   -1.1440   -8.8163    0.0000 C   0  0  0  0  0  0  0  0  0  0  0  0
    0.0696   -9.6980    0.0000 C   0  0  0  0  0  0  0  0  0  0  0  0
   -0.0872  -11.1898    0.0000 C   0  0  0  0  0  0  0  0  0  0  0  0
    1.1263  -12.0714    0.0000 C   0  0  0  0  0  0  0  0  0  0  0  0
    2.4966  -11.4613    0.0000 C   0  0  0  0  0  0  0  0  0  0  0  0
    3.7101  -12.3430    0.0000 F   0  0  0  0  0  0  0  0  0  0  0  0
    2.6534   -9.9696    0.0000 C   0  0  0  0  0  0  0  0  0  0  0  0
    1.4399   -9.0879    0.0000 C   0  0  0  0  0  0  0  0  0  0  0  0
   -0.9872   -7.3245    0.0000 N   0  0  0  0  0  0  0  0  0  0  0  0
   -2.1019   -6.3208    0.0000 C   0  0  0  0  0  0  0  0  0  0  0  0
   -3.5691   -6.6327    0.0000 O   0  0  0  0  0  0  0  0  0  0  0  0
   -1.4918   -4.9505    0.0000 O   0  0  0  0  0  0  0  0  0  0  0  0
   -0.0000   -5.1073    0.0000 C   0  0  0  0  0  0  0  0  0  0  0  0
    1.4918   -4.9505    0.0000 C   0  0  0  0  0  0  0  0  0  0  0  0
    2.3735   -6.1640    0.0000 C   0  0  0  0  0  0  0  0  0  0  0  0
    1.7634   -7.5344    0.0000 C   0  0  0  0  0  0  0  0  0  0  0  0
    2.6450   -8.7479    0.0000 C   0  0  0  0  0  0  0  0  0  0  0  0
    4.1368   -8.5911    0.0000 C   0  0  0  0  0  0  0  0  0  0  0  0
    4.7469   -7.2208    0.0000 C   0  0  0  0  0  0  0  0  0  0  0  0
    3.8652   -6.0072    0.0000 C   0  0  0  0  0  0  0  0  0  0  0  0
   -0.0000   -3.6073    0.0000 C   0  0  0  0  0  0  0  0  0  0  0  0
    1.2135   -2.7256    0.0000 N   0  0  0  0  0  0  0  0  0  0  0  0
    0.7500   -1.2990    0.0000 C   0  0  0  0  0  0  0  0  0  0  0  0
    1.5000    0.0000    0.0000 C   0  0  0  0  0  0  0  0  0  0  0  0
    0.7500    1.2990    0.0000 C   0  0  0  0  0  0  0  0  0  0  0  0
    1.5000    2.5981    0.0000 C   0  0  0  0  0  0  0  0  0  0  0  0
    2.2500    3.8971    0.0000 F   0  0  0  0  0  0  0  0  0  0  0  0
    2.7990    1.8481    0.0000 F   0  0  0  0  0  0  0  0  0  0  0  0
    0.2010    3.3481    0.0000 F   0  0  0  0  0  0  0  0  0  0  0  0
   -0.7500    1.2990    0.0000 C   0  0  0  0  0  0  0  0  0  0  0  0
   -1.5000    0.0000    0.0000 C   0  0  0  0  0  0  0  0  0  0  0  0
   -0.7500   -1.2990    0.0000 C   0  0  0  0  0  0  0  0  0  0  0  0
   -1.2135   -2.7256    0.0000 N   0  0  0  0  0  0  0  0  0  0  0  0
    0.3119   -6.5745    0.0000 C   0  0  0  0  0  0  0  0  0  0  0  0
    1.0098   -7.1199    0.0000 O   0  0  0  0  0  0  0  0  0  0  0  0
  2  1  1  1
  2  3  1  0
  3  4  2  0
  4  5  1  0
  5  6  2  0
  6  7  1  0
  6  8  1  0
  8  9  2  0
  2 10  1  0
 10 11  1  0
 11 12  2  0
 11 13  1  0
 13 14  1  0
 14 15  1  1
 15 16  1  0
 16 17  2  0
 17 18  1  0
 18 19  2  0
 19 20  1  0
 20 21  2  0
 14 22  1  0
 22 23  2  0
 23 24  1  0
 24 25  2  0
 25 26  1  0
 26 27  1  0
 27 28  1  0
 27 29  1  0
 27 30  1  0
 26 31  2  0
 31 32  1  0
 32 33  2  0
 33 34  1  0
 14 35  1  0
 35 36  2  0
  9  3  1  0
 35 10  1  0
 21 16  1  0
 34 22  1  0
 33 24  1  0
M  END
>  <assay_chembl_id>  (538) 
CHEMBL3579176

>  <assay_description>  (538) 
Antagonist activity at human androgen receptor expressed in CHOK1 cells assessed as inhibition of D(-)-norgestrel-induced protein interaction with steroid receptor co-activator peptide after 24 hrs by beta-galactosidase reporter gene assay

>  <parent_molecule_chembl_id>  (538) 
CHEMBL3578274

>  <canonical_smiles>  (538) 
C[C@H](c1ccc(F)cc1)N1C(=O)O[C@](Cc2ccccc2)(c2nc3cc(C(F)(F)F)ccc3[nH]2)C1=O

>  <standard_type>  (538) 
IC50

>  <standard_relation>  (538) 
=

>  <standard_value>  (538) 
3000.0

>  <standard_units>  (538) 
nM

>  <target_pref_name>  (538) 
Androgen Receptor

>  <target_chembl_id>  (538) 
CHEMBL1871

>  <target_organism>  (538) 
Homo sapiens

>  <pchembl_median>  (538) 
8.54

$$$$
CHEMBL3578276
     RDKit          2D

 37 41  0  0  0  0  0  0  0  0999 V2000
   -2.5143   -9.4264    0.0000 C   0  0  0  0  0  0  0  0  0  0  0  0
   -1.1440   -8.8163    0.0000 C   0  0  0  0  0  0  0  0  0  0  0  0
    0.0696   -9.6980    0.0000 C   0  0  0  0  0  0  0  0  0  0  0  0
   -0.0872  -11.1898    0.0000 C   0  0  0  0  0  0  0  0  0  0  0  0
    1.1263  -12.0714    0.0000 C   0  0  0  0  0  0  0  0  0  0  0  0
    2.4966  -11.4613    0.0000 C   0  0  0  0  0  0  0  0  0  0  0  0
    3.7101  -12.3430    0.0000 F   0  0  0  0  0  0  0  0  0  0  0  0
    2.6534   -9.9696    0.0000 C   0  0  0  0  0  0  0  0  0  0  0  0
    1.4399   -9.0879    0.0000 C   0  0  0  0  0  0  0  0  0  0  0  0
   -0.9872   -7.3245    0.0000 N   0  0  0  0  0  0  0  0  0  0  0  0
   -2.1019   -6.3208    0.0000 C   0  0  0  0  0  0  0  0  0  0  0  0
   -3.5691   -6.6327    0.0000 O   0  0  0  0  0  0  0  0  0  0  0  0
   -1.4918   -4.9505    0.0000 O   0  0  0  0  0  0  0  0  0  0  0  0
   -0.0000   -5.1073    0.0000 C   0  0  0  0  0  0  0  0  0  0  0  0
    1.4918   -4.9505    0.0000 C   0  0  0  0  0  0  0  0  0  0  0  0
    2.3735   -6.1640    0.0000 C   0  0  0  0  0  0  0  0  0  0  0  0
    1.7634   -7.5344    0.0000 C   0  0  0  0  0  0  0  0  0  0  0  0
    2.6450   -8.7479    0.0000 C   0  0  0  0  0  0  0  0  0  0  0  0
    4.1368   -8.5911    0.0000 C   0  0  0  0  0  0  0  0  0  0  0  0
    4.7469   -7.2208    0.0000 C   0  0  0  0  0  0  0  0  0  0  0  0
    3.8652   -6.0072    0.0000 C   0  0  0  0  0  0  0  0  0  0  0  0
   -0.0000   -3.6073    0.0000 C   0  0  0  0  0  0  0  0  0  0  0  0
    1.2135   -2.7256    0.0000 N   0  0  0  0  0  0  0  0  0  0  0  0
    0.7500   -1.2990    0.0000 C   0  0  0  0  0  0  0  0  0  0  0  0
    1.5000    0.0000    0.0000 C   0  0  0  0  0  0  0  0  0  0  0  0
    0.7500    1.2990    0.0000 C   0  0  0  0  0  0  0  0  0  0  0  0
    1.5000    2.5981    0.0000 N   0  0  0  0  0  0  0  0  0  0  0  0
    3.0000    2.5981    0.0000 S   0  0  0  0  0  0  0  0  0  0  0  0
    4.5000    2.5981    0.0000 C   0  0  0  0  0  0  0  0  0  0  0  0
    3.0000    1.0981    0.0000 O   0  0  0  0  0  0  0  0  0  0  0  0
    3.0000    4.0981    0.0000 O   0  0  0  0  0  0  0  0  0  0  0  0
   -0.7500    1.2990    0.0000 C   0  0  0  0  0  0  0  0  0  0  0  0
   -1.5000    0.0000    0.0000 C   0  0  0  0  0  0  0  0  0  0  0  0
   -0.7500   -1.2990    0.0000 C   0  0  0  0  0  0  0  0  0  0  0  0
   -1.2135   -2.7256    0.0000 N   0  0  0  0  0  0  0  0  0  0  0  0
    0.3119   -6.5745    0.0000 C   0  0  0  0  0  0  0  0  0  0  0  0
    1.0098   -7.1199    0.0000 O   0  0  0  0  0  0  0  0  0  0  0  0
  2  1  1  1
  2  3  1  0
  3  4  2  0
  4  5  1  0
  5  6  2  0
  6  7  1  0
  6  8  1  0
  8  9  2  0
  2 10  1  0
 10 11  1  0
 11 12  2  0
 11 13  1  0
 13 14  1  0
 14 15  1  1
 15 16  1  0
 16 17  2  0
 17 18  1  0
 18 19  2  0
 19 20  1  0
 20 21  2  0
 14 22  1  0
 22 23  2  0
 23 24  1  0
 24 25  2  0
 25 26  1  0
 26 27  1  0
 27 28  1  0
 28 29  1  0
 28 30  2  0
 28 31  2  0
 26 32  2  0
 32 33  1  0
 33 34  2  0
 34 35  1  0
 14 36  1  0
 36 37  2  0
  9  3  1  0
 36 10  1  0
 21 16  1  0
 35 22  1  0
 34 24  1  0
M  END
>  <assay_chembl_id>  (539) 
CHEMBL3579176

>  <assay_description>  (539) 
Antagonist activity at human androgen receptor expressed in CHOK1 cells assessed as inhibition of D(-)-norgestrel-induced protein interaction with steroid receptor co-activator peptide after 24 hrs by beta-galactosidase reporter gene assay

>  <parent_molecule_chembl_id>  (539) 
CHEMBL3578276

>  <canonical_smiles>  (539) 
C[C@H](c1ccc(F)cc1)N1C(=O)O[C@](Cc2ccccc2)(c2nc3cc(NS(C)(=O)=O)ccc3[nH]2)C1=O

>  <standard_type>  (539) 
IC50

>  <standard_relation>  (539) 
=

>  <standard_value>  (539) 
13000.0

>  <standard_units>  (539) 
nM

>  <target_pref_name>  (539) 
Androgen Receptor

>  <target_chembl_id>  (539) 
CHEMBL1871

>  <target_organism>  (539) 
Homo sapiens

>  <pchembl_median>  (539) 
8.17

$$$$
CHEMBL3576885
     RDKit          2D

 37 42  0  0  0  0  0  0  0  0999 V2000
   -2.5143   -9.4264    0.0000 C   0  0  0  0  0  0  0  0  0  0  0  0
   -1.1440   -8.8163    0.0000 C   0  0  0  0  0  0  0  0  0  0  0  0
    0.0696   -9.6980    0.0000 C   0  0  0  0  0  0  0  0  0  0  0  0
   -0.0872  -11.1898    0.0000 C   0  0  0  0  0  0  0  0  0  0  0  0
    1.1263  -12.0714    0.0000 C   0  0  0  0  0  0  0  0  0  0  0  0
    2.4966  -11.4613    0.0000 C   0  0  0  0  0  0  0  0  0  0  0  0
    3.7101  -12.3430    0.0000 F   0  0  0  0  0  0  0  0  0  0  0  0
    2.6534   -9.9696    0.0000 C   0  0  0  0  0  0  0  0  0  0  0  0
    1.4399   -9.0879    0.0000 C   0  0  0  0  0  0  0  0  0  0  0  0
   -0.9872   -7.3245    0.0000 N   0  0  0  0  0  0  0  0  0  0  0  0
   -2.1019   -6.3208    0.0000 C   0  0  0  0  0  0  0  0  0  0  0  0
   -3.5691   -6.6327    0.0000 O   0  0  0  0  0  0  0  0  0  0  0  0
   -1.4918   -4.9505    0.0000 O   0  0  0  0  0  0  0  0  0  0  0  0
   -0.0000   -5.1073    0.0000 C   0  0  0  0  0  0  0  0  0  0  0  0
    1.4918   -4.9505    0.0000 C   0  0  0  0  0  0  0  0  0  0  0  0
    2.3735   -6.1640    0.0000 C   0  0  0  0  0  0  0  0  0  0  0  0
    1.7634   -7.5344    0.0000 C   0  0  0  0  0  0  0  0  0  0  0  0
    2.6450   -8.7479    0.0000 C   0  0  0  0  0  0  0  0  0  0  0  0
    4.1368   -8.5911    0.0000 C   0  0  0  0  0  0  0  0  0  0  0  0
    4.7469   -7.2208    0.0000 C   0  0  0  0  0  0  0  0  0  0  0  0
    3.8652   -6.0072    0.0000 C   0  0  0  0  0  0  0  0  0  0  0  0
   -0.0000   -3.6073    0.0000 C   0  0  0  0  0  0  0  0  0  0  0  0
    1.2135   -2.7256    0.0000 N   0  0  0  0  0  0  0  0  0  0  0  0
    0.7500   -1.2990    0.0000 C   0  0  0  0  0  0  0  0  0  0  0  0
    1.5000    0.0000    0.0000 C   0  0  0  0  0  0  0  0  0  0  0  0
    0.7500    1.2990    0.0000 C   0  0  0  0  0  0  0  0  0  0  0  0
    1.5000    2.5981    0.0000 C   0  0  0  0  0  0  0  0  0  0  0  0
    0.8899    3.9684    0.0000 C   0  0  0  0  0  0  0  0  0  0  0  0
    2.0046    4.9721    0.0000 C   0  0  0  0  0  0  0  0  0  0  0  0
    3.3037    4.2221    0.0000 N   0  0  0  0  0  0  0  0  0  0  0  0
    2.9918    2.7549    0.0000 N   0  0  0  0  0  0  0  0  0  0  0  0
   -0.7500    1.2990    0.0000 C   0  0  0  0  0  0  0  0  0  0  0  0
   -1.5000    0.0000    0.0000 C   0  0  0  0  0  0  0  0  0  0  0  0
   -0.7500   -1.2990    0.0000 C   0  0  0  0  0  0  0  0  0  0  0  0
   -1.2135   -2.7256    0.0000 N   0  0  0  0  0  0  0  0  0  0  0  0
    0.3119   -6.5745    0.0000 C   0  0  0  0  0  0  0  0  0  0  0  0
    1.0098   -7.1199    0.0000 O   0  0  0  0  0  0  0  0  0  0  0  0
  2  1  1  1
  2  3  1  0
  3  4  2  0
  4  5  1  0
  5  6  2  0
  6  7  1  0
  6  8  1  0
  8  9  2  0
  2 10  1  0
 10 11  1  0
 11 12  2  0
 11 13  1  0
 13 14  1  0
 14 15  1  1
 15 16  1  0
 16 17  2  0
 17 18  1  0
 18 19  2  0
 19 20  1  0
 20 21  2  0
 14 22  1  0
 22 23  2  0
 23 24  1  0
 24 25  2  0
 25 26  1  0
 26 27  1  0
 27 28  1  0
 28 29  2  0
 29 30  1  0
 30 31  1  0
 26 32  2  0
 32 33  1  0
 33 34  2  0
 34 35  1  0
 14 36  1  0
 36 37  2  0
  9  3  1  0
 36 10  1  0
 21 16  1  0
 35 22  1  0
 34 24  1  0
 31 27  2  0
M  END
>  <assay_chembl_id>  (540) 
CHEMBL3579176

>  <assay_description>  (540) 
Antagonist activity at human androgen receptor expressed in CHOK1 cells assessed as inhibition of D(-)-norgestrel-induced protein interaction with steroid receptor co-activator peptide after 24 hrs by beta-galactosidase reporter gene assay

>  <parent_molecule_chembl_id>  (540) 
CHEMBL3576885

>  <canonical_smiles>  (540) 
C[C@H](c1ccc(F)cc1)N1C(=O)O[C@](Cc2ccccc2)(c2nc3cc(-c4cc[nH]n4)ccc3[nH]2)C1=O

>  <standard_type>  (540) 
IC50

>  <standard_relation>  (540) 
=

>  <standard_value>  (540) 
3100.0

>  <standard_units>  (540) 
nM

>  <target_pref_name>  (540) 
Androgen Receptor

>  <target_chembl_id>  (540) 
CHEMBL1871

>  <target_organism>  (540) 
Homo sapiens

>  <pchembl_median>  (540) 
8.47

$$$$
CHEMBL3578284
     RDKit          2D

 38 43  0  0  0  0  0  0  0  0999 V2000
   -0.5773   -4.2803    0.0000 C   0  0  0  0  0  0  0  0  0  0  0  0
    0.8899   -3.9684    0.0000 C   0  0  0  0  0  0  0  0  0  0  0  0
    2.0046   -4.9721    0.0000 N   0  0  0  0  0  0  0  0  0  0  0  0
    3.3037   -4.2221    0.0000 O   0  0  0  0  0  0  0  0  0  0  0  0
    2.9918   -2.7549    0.0000 C   0  0  0  0  0  0  0  0  0  0  0  0
    1.5000   -2.5981    0.0000 C   0  0  0  0  0  0  0  0  0  0  0  0
    0.7500   -1.2990    0.0000 C   0  0  0  0  0  0  0  0  0  0  0  0
    1.5000    0.0000    0.0000 C   0  0  0  0  0  0  0  0  0  0  0  0
    0.7500    1.2990    0.0000 C   0  0  0  0  0  0  0  0  0  0  0  0
   -0.7500    1.2990    0.0000 C   0  0  0  0  0  0  0  0  0  0  0  0
   -1.7537    2.4138    0.0000 N   0  0  0  0  0  0  0  0  0  0  0  0
   -3.1240    1.8037    0.0000 C   0  0  0  0  0  0  0  0  0  0  0  0
   -4.4231    2.5537    0.0000 C   0  0  0  0  0  0  0  0  0  0  0  0
   -5.0332    1.1833    0.0000 C   0  0  0  0  0  0  0  0  0  0  0  0
   -6.5249    1.0265    0.0000 C   0  0  0  0  0  0  0  0  0  0  0  0
   -7.4066    2.2401    0.0000 C   0  0  0  0  0  0  0  0  0  0  0  0
   -8.8984    2.0833    0.0000 C   0  0  0  0  0  0  0  0  0  0  0  0
   -9.5085    0.7130    0.0000 C   0  0  0  0  0  0  0  0  0  0  0  0
   -8.6268   -0.5006    0.0000 C   0  0  0  0  0  0  0  0  0  0  0  0
   -7.1350   -0.3438    0.0000 C   0  0  0  0  0  0  0  0  0  0  0  0
   -5.8496    3.0172    0.0000 O   0  0  0  0  0  0  0  0  0  0  0  0
   -5.8496    4.5172    0.0000 C   0  0  0  0  0  0  0  0  0  0  0  0
   -7.0632    5.3989    0.0000 O   0  0  0  0  0  0  0  0  0  0  0  0
   -4.4231    4.9807    0.0000 N   0  0  0  0  0  0  0  0  0  0  0  0
   -3.9595    6.4073    0.0000 C   0  0  0  0  0  0  0  0  0  0  0  0
   -2.4923    6.7192    0.0000 C   0  0  0  0  0  0  0  0  0  0  0  0
   -4.9632    7.5220    0.0000 C   0  0  0  0  0  0  0  0  0  0  0  0
   -4.4997    8.9486    0.0000 C   0  0  0  0  0  0  0  0  0  0  0  0
   -5.5034   10.0633    0.0000 C   0  0  0  0  0  0  0  0  0  0  0  0
   -6.9706    9.7514    0.0000 C   0  0  0  0  0  0  0  0  0  0  0  0
   -7.9743   10.8662    0.0000 F   0  0  0  0  0  0  0  0  0  0  0  0
   -7.4341    8.3249    0.0000 C   0  0  0  0  0  0  0  0  0  0  0  0
   -6.4304    7.2101    0.0000 C   0  0  0  0  0  0  0  0  0  0  0  0
   -3.5414    3.7672    0.0000 C   0  0  0  0  0  0  0  0  0  0  0  0
   -2.0414    3.7672    0.0000 O   0  0  0  0  0  0  0  0  0  0  0  0
   -2.9672    0.3119    0.0000 N   0  0  0  0  0  0  0  0  0  0  0  0
   -1.5000    0.0000    0.0000 C   0  0  0  0  0  0  0  0  0  0  0  0
   -0.7500   -1.2990    0.0000 C   0  0  0  0  0  0  0  0  0  0  0  0
  1  2  1  0
  2  3  2  0
  3  4  1  0
  4  5  1  0
  5  6  2  0
  6  7  1  0
  7  8  2  0
  8  9  1  0
  9 10  2  0
 10 11  1  0
 11 12  1  0
 12 13  1  0
 13 14  1  6
 14 15  1  0
 15 16  2  0
 16 17  1  0
 17 18  2  0
 18 19  1  0
 19 20  2  0
 13 21  1  0
 21 22  1  0
 22 23  2  0
 22 24  1  0
 24 25  1  0
 25 26  1  1
 25 27  1  0
 27 28  2  0
 28 29  1  0
 29 30  2  0
 30 31  1  0
 30 32  1  0
 32 33  2  0
 24 34  1  0
 34 35  2  0
 12 36  2  0
 36 37  1  0
 37 38  2  0
  6  2  1  0
 38  7  1  0
 37 10  1  0
 34 13  1  0
 20 15  1  0
 33 27  1  0
M  END
>  <assay_chembl_id>  (541) 
CHEMBL3579176

>  <assay_description>  (541) 
Antagonist activity at human androgen receptor expressed in CHOK1 cells assessed as inhibition of D(-)-norgestrel-induced protein interaction with steroid receptor co-activator peptide after 24 hrs by beta-galactosidase reporter gene assay

>  <parent_molecule_chembl_id>  (541) 
CHEMBL3578284

>  <canonical_smiles>  (541) 
Cc1nocc1-c1ccc2[nH]c([C@@]3(Cc4ccccc4)OC(=O)N([C@H](C)c4ccc(F)cc4)C3=O)nc2c1

>  <standard_type>  (541) 
IC50

>  <standard_relation>  (541) 
=

>  <standard_value>  (541) 
3400.0

>  <standard_units>  (541) 
nM

>  <target_pref_name>  (541) 
Androgen Receptor

>  <target_chembl_id>  (541) 
CHEMBL1871

>  <target_organism>  (541) 
Homo sapiens

>  <pchembl_median>  (541) 
5.55

$$$$
CHEMBL3578285
     RDKit          2D

 38 43  0  0  0  0  0  0  0  0999 V2000
   -2.5143   -9.4264    0.0000 C   0  0  0  0  0  0  0  0  0  0  0  0
   -1.1440   -8.8163    0.0000 C   0  0  0  0  0  0  0  0  0  0  0  0
    0.0696   -9.6980    0.0000 C   0  0  0  0  0  0  0  0  0  0  0  0
   -0.0872  -11.1898    0.0000 C   0  0  0  0  0  0  0  0  0  0  0  0
    1.1263  -12.0714    0.0000 C   0  0  0  0  0  0  0  0  0  0  0  0
    2.4966  -11.4613    0.0000 C   0  0  0  0  0  0  0  0  0  0  0  0
    3.7101  -12.3430    0.0000 F   0  0  0  0  0  0  0  0  0  0  0  0
    2.6534   -9.9696    0.0000 C   0  0  0  0  0  0  0  0  0  0  0  0
    1.4399   -9.0879    0.0000 C   0  0  0  0  0  0  0  0  0  0  0  0
   -0.9872   -7.3245    0.0000 N   0  0  0  0  0  0  0  0  0  0  0  0
   -2.1019   -6.3208    0.0000 C   0  0  0  0  0  0  0  0  0  0  0  0
   -3.5691   -6.6327    0.0000 O   0  0  0  0  0  0  0  0  0  0  0  0
   -1.4918   -4.9505    0.0000 O   0  0  0  0  0  0  0  0  0  0  0  0
   -0.0000   -5.1073    0.0000 C   0  0  0  0  0  0  0  0  0  0  0  0
    1.4918   -4.9505    0.0000 C   0  0  0  0  0  0  0  0  0  0  0  0
    2.3735   -6.1640    0.0000 C   0  0  0  0  0  0  0  0  0  0  0  0
    1.7634   -7.5344    0.0000 C   0  0  0  0  0  0  0  0  0  0  0  0
    2.6450   -8.7479    0.0000 C   0  0  0  0  0  0  0  0  0  0  0  0
    4.1368   -8.5911    0.0000 C   0  0  0  0  0  0  0  0  0  0  0  0
    4.7469   -7.2208    0.0000 C   0  0  0  0  0  0  0  0  0  0  0  0
    3.8652   -6.0072    0.0000 C   0  0  0  0  0  0  0  0  0  0  0  0
   -0.0000   -3.6073    0.0000 C   0  0  0  0  0  0  0  0  0  0  0  0
    1.2135   -2.7256    0.0000 N   0  0  0  0  0  0  0  0  0  0  0  0
    0.7500   -1.2990    0.0000 C   0  0  0  0  0  0  0  0  0  0  0  0
    1.5000    0.0000    0.0000 C   0  0  0  0  0  0  0  0  0  0  0  0
    0.7500    1.2990    0.0000 C   0  0  0  0  0  0  0  0  0  0  0  0
    1.5000    2.5981    0.0000 N   0  0  0  0  0  0  0  0  0  0  0  0
    3.0000    2.5981    0.0000 C   0  0  0  0  0  0  0  0  0  0  0  0
    3.7500    3.8971    0.0000 C   0  0  0  0  0  0  0  0  0  0  0  0
    3.0000    5.1962    0.0000 O   0  0  0  0  0  0  0  0  0  0  0  0
    1.5000    5.1962    0.0000 C   0  0  0  0  0  0  0  0  0  0  0  0
    0.7500    3.8971    0.0000 C   0  0  0  0  0  0  0  0  0  0  0  0
   -0.7500    1.2990    0.0000 C   0  0  0  0  0  0  0  0  0  0  0  0
   -1.5000    0.0000    0.0000 C   0  0  0  0  0  0  0  0  0  0  0  0
   -0.7500   -1.2990    0.0000 C   0  0  0  0  0  0  0  0  0  0  0  0
   -1.2135   -2.7256    0.0000 N   0  0  0  0  0  0  0  0  0  0  0  0
    0.3119   -6.5745    0.0000 C   0  0  0  0  0  0  0  0  0  0  0  0
    1.0098   -7.1199    0.0000 O   0  0  0  0  0  0  0  0  0  0  0  0
  2  1  1  1
  2  3  1  0
  3  4  2  0
  4  5  1  0
  5  6  2  0
  6  7  1  0
  6  8  1  0
  8  9  2  0
  2 10  1  0
 10 11  1  0
 11 12  2  0
 11 13  1  0
 13 14  1  0
 14 15  1  1
 15 16  1  0
 16 17  2  0
 17 18  1  0
 18 19  2  0
 19 20  1  0
 20 21  2  0
 14 22  1  0
 22 23  2  0
 23 24  1  0
 24 25  2  0
 25 26  1  0
 26 27  1  0
 27 28  1  0
 28 29  1  0
 29 30  1  0
 30 31  1  0
 31 32  1  0
 26 33  2  0
 33 34  1  0
 34 35  2  0
 35 36  1  0
 14 37  1  0
 37 38  2  0
  9  3  1  0
 37 10  1  0
 21 16  1  0
 36 22  1  0
 35 24  1  0
 32 27  1  0
M  END
>  <assay_chembl_id>  (542) 
CHEMBL3579176

>  <assay_description>  (542) 
Antagonist activity at human androgen receptor expressed in CHOK1 cells assessed as inhibition of D(-)-norgestrel-induced protein interaction with steroid receptor co-activator peptide after 24 hrs by beta-galactosidase reporter gene assay

>  <parent_molecule_chembl_id>  (542) 
CHEMBL3578285

>  <canonical_smiles>  (542) 
C[C@H](c1ccc(F)cc1)N1C(=O)O[C@](Cc2ccccc2)(c2nc3cc(N4CCOCC4)ccc3[nH]2)C1=O

>  <standard_type>  (542) 
IC50

>  <standard_relation>  (542) 
=

>  <standard_value>  (542) 
7700.0

>  <standard_units>  (542) 
nM

>  <target_pref_name>  (542) 
Androgen Receptor

>  <target_chembl_id>  (542) 
CHEMBL1871

>  <target_organism>  (542) 
Homo sapiens

>  <pchembl_median>  (542) 
7.23

$$$$
CHEMBL3578286
     RDKit          2D

 38 43  0  0  0  0  0  0  0  0999 V2000
   -2.5143   -9.4264    0.0000 C   0  0  0  0  0  0  0  0  0  0  0  0
   -1.1440   -8.8163    0.0000 C   0  0  0  0  0  0  0  0  0  0  0  0
    0.0696   -9.6980    0.0000 C   0  0  0  0  0  0  0  0  0  0  0  0
   -0.0872  -11.1898    0.0000 C   0  0  0  0  0  0  0  0  0  0  0  0
    1.1263  -12.0714    0.0000 C   0  0  0  0  0  0  0  0  0  0  0  0
    2.4966  -11.4613    0.0000 C   0  0  0  0  0  0  0  0  0  0  0  0
    3.7101  -12.3430    0.0000 F   0  0  0  0  0  0  0  0  0  0  0  0
    2.6534   -9.9696    0.0000 C   0  0  0  0  0  0  0  0  0  0  0  0
    1.4399   -9.0879    0.0000 C   0  0  0  0  0  0  0  0  0  0  0  0
   -0.9872   -7.3245    0.0000 N   0  0  0  0  0  0  0  0  0  0  0  0
   -2.1019   -6.3208    0.0000 C   0  0  0  0  0  0  0  0  0  0  0  0
   -3.5691   -6.6327    0.0000 O   0  0  0  0  0  0  0  0  0  0  0  0
   -1.4918   -4.9505    0.0000 O   0  0  0  0  0  0  0  0  0  0  0  0
   -0.0000   -5.1073    0.0000 C   0  0  0  0  0  0  0  0  0  0  0  0
    1.4918   -4.9505    0.0000 C   0  0  0  0  0  0  0  0  0  0  0  0
    2.3735   -6.1640    0.0000 C   0  0  0  0  0  0  0  0  0  0  0  0
    1.7634   -7.5344    0.0000 C   0  0  0  0  0  0  0  0  0  0  0  0
    2.6450   -8.7479    0.0000 C   0  0  0  0  0  0  0  0  0  0  0  0
    4.1368   -8.5911    0.0000 C   0  0  0  0  0  0  0  0  0  0  0  0
    4.7469   -7.2208    0.0000 C   0  0  0  0  0  0  0  0  0  0  0  0
    3.8652   -6.0072    0.0000 C   0  0  0  0  0  0  0  0  0  0  0  0
   -0.0000   -3.6073    0.0000 C   0  0  0  0  0  0  0  0  0  0  0  0
    1.2135   -2.7256    0.0000 N   0  0  0  0  0  0  0  0  0  0  0  0
    0.7500   -1.2990    0.0000 C   0  0  0  0  0  0  0  0  0  0  0  0
    1.5000    0.0000    0.0000 C   0  0  0  0  0  0  0  0  0  0  0  0
    0.7500    1.2990    0.0000 C   0  0  0  0  0  0  0  0  0  0  0  0
    1.5000    2.5981    0.0000 C   0  0  0  0  0  0  0  0  0  0  0  0
    3.0000    2.5981    0.0000 C   0  0  0  0  0  0  0  0  0  0  0  0
    3.7500    3.8971    0.0000 C   0  0  0  0  0  0  0  0  0  0  0  0
    3.0000    5.1962    0.0000 C   0  0  0  0  0  0  0  0  0  0  0  0
    1.5000    5.1962    0.0000 N   0  0  0  0  0  0  0  0  0  0  0  0
    0.7500    3.8971    0.0000 C   0  0  0  0  0  0  0  0  0  0  0  0
   -0.7500    1.2990    0.0000 C   0  0  0  0  0  0  0  0  0  0  0  0
   -1.5000    0.0000    0.0000 C   0  0  0  0  0  0  0  0  0  0  0  0
   -0.7500   -1.2990    0.0000 C   0  0  0  0  0  0  0  0  0  0  0  0
   -1.2135   -2.7256    0.0000 N   0  0  0  0  0  0  0  0  0  0  0  0
    0.3119   -6.5745    0.0000 C   0  0  0  0  0  0  0  0  0  0  0  0
    1.0098   -7.1199    0.0000 O   0  0  0  0  0  0  0  0  0  0  0  0
  2  1  1  1
  2  3  1  0
  3  4  2  0
  4  5  1  0
  5  6  2  0
  6  7  1  0
  6  8  1  0
  8  9  2  0
  2 10  1  0
 10 11  1  0
 11 12  2  0
 11 13  1  0
 13 14  1  0
 14 15  1  1
 15 16  1  0
 16 17  2  0
 17 18  1  0
 18 19  2  0
 19 20  1  0
 20 21  2  0
 14 22  1  0
 22 23  2  0
 23 24  1  0
 24 25  2  0
 25 26  1  0
 26 27  1  0
 27 28  2  0
 28 29  1  0
 29 30  2  0
 30 31  1  0
 31 32  2  0
 26 33  2  0
 33 34  1  0
 34 35  2  0
 35 36  1  0
 14 37  1  0
 37 38  2  0
  9  3  1  0
 37 10  1  0
 21 16  1  0
 36 22  1  0
 35 24  1  0
 32 27  1  0
M  END
>  <assay_chembl_id>  (543) 
CHEMBL3579176

>  <assay_description>  (543) 
Antagonist activity at human androgen receptor expressed in CHOK1 cells assessed as inhibition of D(-)-norgestrel-induced protein interaction with steroid receptor co-activator peptide after 24 hrs by beta-galactosidase reporter gene assay

>  <parent_molecule_chembl_id>  (543) 
CHEMBL3578286

>  <canonical_smiles>  (543) 
C[C@H](c1ccc(F)cc1)N1C(=O)O[C@](Cc2ccccc2)(c2nc3cc(-c4cccnc4)ccc3[nH]2)C1=O

>  <standard_type>  (543) 
IC50

>  <standard_relation>  (543) 
=

>  <standard_value>  (543) 
3700.0

>  <standard_units>  (543) 
nM

>  <target_pref_name>  (543) 
Androgen Receptor

>  <target_chembl_id>  (543) 
CHEMBL1871

>  <target_organism>  (543) 
Homo sapiens

>  <pchembl_median>  (543) 
9.385

$$$$
CHEMBL3578295
     RDKit          2D

 37 41  0  0  0  0  0  0  0  0999 V2000
   -2.5143   -9.4264    0.0000 C   0  0  0  0  0  0  0  0  0  0  0  0
   -1.1440   -8.8163    0.0000 C   0  0  0  0  0  0  0  0  0  0  0  0
    0.0696   -9.6980    0.0000 C   0  0  0  0  0  0  0  0  0  0  0  0
   -0.0872  -11.1898    0.0000 C   0  0  0  0  0  0  0  0  0  0  0  0
    1.1263  -12.0714    0.0000 C   0  0  0  0  0  0  0  0  0  0  0  0
    2.4966  -11.4613    0.0000 C   0  0  0  0  0  0  0  0  0  0  0  0
    3.7101  -12.3430    0.0000 F   0  0  0  0  0  0  0  0  0  0  0  0
    2.6534   -9.9696    0.0000 C   0  0  0  0  0  0  0  0  0  0  0  0
    1.4399   -9.0879    0.0000 C   0  0  0  0  0  0  0  0  0  0  0  0
   -0.9872   -7.3245    0.0000 N   0  0  0  0  0  0  0  0  0  0  0  0
   -2.1019   -6.3208    0.0000 C   0  0  0  0  0  0  0  0  0  0  0  0
   -3.5691   -6.6327    0.0000 O   0  0  0  0  0  0  0  0  0  0  0  0
   -1.4918   -4.9505    0.0000 O   0  0  0  0  0  0  0  0  0  0  0  0
   -0.0000   -5.1073    0.0000 C   0  0  0  0  0  0  0  0  0  0  0  0
    1.4918   -4.9505    0.0000 C   0  0  0  0  0  0  0  0  0  0  0  0
    2.3735   -6.1640    0.0000 C   0  0  0  0  0  0  0  0  0  0  0  0
    1.7634   -7.5344    0.0000 C   0  0  0  0  0  0  0  0  0  0  0  0
    2.6450   -8.7479    0.0000 C   0  0  0  0  0  0  0  0  0  0  0  0
    4.1368   -8.5911    0.0000 C   0  0  0  0  0  0  0  0  0  0  0  0
    4.7469   -7.2208    0.0000 C   0  0  0  0  0  0  0  0  0  0  0  0
    3.8652   -6.0072    0.0000 C   0  0  0  0  0  0  0  0  0  0  0  0
   -0.0000   -3.6073    0.0000 C   0  0  0  0  0  0  0  0  0  0  0  0
    1.2135   -2.7256    0.0000 N   0  0  0  0  0  0  0  0  0  0  0  0
    0.7500   -1.2990    0.0000 C   0  0  0  0  0  0  0  0  0  0  0  0
    1.5000    0.0000    0.0000 C   0  0  0  0  0  0  0  0  0  0  0  0
    3.0000    0.0000    0.0000 N   0  0  0  0  0  0  0  0  0  0  0  0
    3.7500    1.2990    0.0000 S   0  0  0  0  0  0  0  0  0  0  0  0
    4.5000    2.5981    0.0000 C   0  0  0  0  0  0  0  0  0  0  0  0
    2.4510    2.0490    0.0000 O   0  0  0  0  0  0  0  0  0  0  0  0
    5.0490    0.5490    0.0000 O   0  0  0  0  0  0  0  0  0  0  0  0
    0.7500    1.2990    0.0000 C   0  0  0  0  0  0  0  0  0  0  0  0
   -0.7500    1.2990    0.0000 C   0  0  0  0  0  0  0  0  0  0  0  0
   -1.5000    0.0000    0.0000 C   0  0  0  0  0  0  0  0  0  0  0  0
   -0.7500   -1.2990    0.0000 C   0  0  0  0  0  0  0  0  0  0  0  0
   -1.2135   -2.7256    0.0000 N   0  0  0  0  0  0  0  0  0  0  0  0
    0.3119   -6.5745    0.0000 C   0  0  0  0  0  0  0  0  0  0  0  0
    1.0098   -7.1199    0.0000 O   0  0  0  0  0  0  0  0  0  0  0  0
  2  1  1  1
  2  3  1  0
  3  4  2  0
  4  5  1  0
  5  6  2  0
  6  7  1  0
  6  8  1  0
  8  9  2  0
  2 10  1  0
 10 11  1  0
 11 12  2  0
 11 13  1  0
 13 14  1  0
 14 15  1  1
 15 16  1  0
 16 17  2  0
 17 18  1  0
 18 19  2  0
 19 20  1  0
 20 21  2  0
 14 22  1  0
 22 23  2  0
 23 24  1  0
 24 25  2  0
 25 26  1  0
 26 27  1  0
 27 28  1  0
 27 29  2  0
 27 30  2  0
 25 31  1  0
 31 32  2  0
 32 33  1  0
 33 34  2  0
 34 35  1  0
 14 36  1  0
 36 37  2  0
  9  3  1  0
 36 10  1  0
 21 16  1  0
 35 22  1  0
 34 24  1  0
M  END
>  <assay_chembl_id>  (544) 
CHEMBL3579176

>  <assay_description>  (544) 
Antagonist activity at human androgen receptor expressed in CHOK1 cells assessed as inhibition of D(-)-norgestrel-induced protein interaction with steroid receptor co-activator peptide after 24 hrs by beta-galactosidase reporter gene assay

>  <parent_molecule_chembl_id>  (544) 
CHEMBL3578295

>  <canonical_smiles>  (544) 
C[C@H](c1ccc(F)cc1)N1C(=O)O[C@](Cc2ccccc2)(c2nc3c(NS(C)(=O)=O)cccc3[nH]2)C1=O

>  <standard_type>  (544) 
IC50

>  <standard_relation>  (544) 
=

>  <standard_value>  (544) 
11000.0

>  <standard_units>  (544) 
nM

>  <target_pref_name>  (544) 
Androgen Receptor

>  <target_chembl_id>  (544) 
CHEMBL1871

>  <target_organism>  (544) 
Homo sapiens

>  <pchembl_median>  (544) 
7.43

$$$$
CHEMBL3590187
     RDKit          2D

 29 32  0  0  0  0  0  0  0  0999 V2000
   -8.6312   -7.1659    0.0000 C   0  0  0  0  0  0  0  0  0  0  0  0
   -7.4177   -6.2842    0.0000 C   0  0  0  0  0  0  0  0  0  0  0  0
   -6.0474   -6.8943    0.0000 C   0  0  0  0  0  0  0  0  0  0  0  0
   -6.0629   -7.7799    0.0000 O   0  0  0  0  0  0  0  0  0  0  0  0
   -4.8338   -6.0126    0.0000 O   0  0  0  0  0  0  0  0  0  0  0  0
   -3.4635   -6.6227    0.0000 C   0  0  0  0  0  0  0  0  0  0  0  0
   -4.2135   -7.9218    0.0000 C   0  0  0  0  0  0  0  0  0  0  0  0
   -5.0927   -8.0297    0.0000 O   0  0  0  0  0  0  0  0  0  0  0  0
   -3.4635   -9.2208    0.0000 C   0  0  0  0  0  0  0  0  0  0  0  0
   -4.2135  -10.5199    0.0000 O   0  0  0  0  0  0  0  0  0  0  0  0
   -2.2500   -7.5044    0.0000 C   0  0  0  0  0  0  0  0  0  0  0  0
   -1.0365   -6.6227    0.0000 C   0  0  0  0  0  0  0  0  0  0  0  0
   -1.5000   -5.1962    0.0000 C   0  0  0  0  0  0  0  0  0  0  0  0
   -0.7500   -3.8971    0.0000 C   0  0  0  0  0  0  0  0  0  0  0  0
    0.7500   -3.8971    0.0000 C   0  0  0  0  0  0  0  0  0  0  0  0
    1.5000   -2.5981    0.0000 C   0  0  0  0  0  0  0  0  0  0  0  0
    0.7500   -1.2990    0.0000 C   0  0  0  0  0  0  0  0  0  0  0  0
    1.5000    0.0000    0.0000 C   0  0  0  0  0  0  0  0  0  0  0  0
    0.7500    1.2990    0.0000 C   0  0  0  0  0  0  0  0  0  0  0  0
    1.5000    2.5981    0.0000 O   0  0  0  0  0  0  0  0  0  0  0  0
   -0.7500    1.2990    0.0000 C   0  0  0  0  0  0  0  0  0  0  0  0
   -1.5000    0.0000    0.0000 C   0  0  0  0  0  0  0  0  0  0  0  0
   -0.7500   -1.2990    0.0000 C   0  0  0  0  0  0  0  0  0  0  0  0
   -2.2500   -1.2990    0.0000 C   0  0  0  0  0  0  0  0  0  0  0  0
   -1.5000   -2.5981    0.0000 C   0  0  0  0  0  0  0  0  0  0  0  0
   -3.0000   -2.5981    0.0000 C   0  0  0  0  0  0  0  0  0  0  0  0
   -3.7500   -3.8971    0.0000 C   0  0  0  0  0  0  0  0  0  0  0  0
   -3.0000   -5.1962    0.0000 C   0  0  0  0  0  0  0  0  0  0  0  0
   -4.4854   -4.9873    0.0000 C   0  0  0  0  0  0  0  0  0  0  0  0
  1  2  1  0
  2  3  1  0
  3  4  2  0
  3  5  1  0
  6  5  1  1
  6  7  1  0
  7  8  2  0
  7  9  1  0
  9 10  1  0
  6 11  1  0
 11 12  1  0
 13 12  1  6
 13 14  1  0
 14 15  1  1
 15 16  1  0
 16 17  1  0
 17 18  2  0
 18 19  1  0
 19 20  2  0
 19 21  1  0
 21 22  1  0
 22 23  1  0
 23 24  1  6
 23 25  1  0
 25 26  1  6
 26 27  1  0
 27 28  1  0
 28 29  1  6
 28  6  1  0
 28 13  1  0
 25 14  1  0
 23 17  1  0
M  END
>  <assay_chembl_id>  (545) 
CHEMBL3592008

>  <assay_description>  (545) 
Displacement of [3H]methyltrienolone from androgen receptor in human prostate cancer cells

>  <parent_molecule_chembl_id>  (545) 
CHEMBL3590187

>  <canonical_smiles>  (545) 
CCC(=O)O[C@]1(C(=O)CO)CC[C@H]2[C@@H]3CCC4=CC(=O)CC[C@]4(C)[C@H]3CC[C@@]21C

>  <standard_type>  (545) 
IC50

>  <standard_relation>  (545) 
=

>  <standard_value>  (545) 
50.0

>  <standard_units>  (545) 
nM

>  <target_pref_name>  (545) 
Androgen Receptor

>  <target_chembl_id>  (545) 
CHEMBL1871

>  <target_organism>  (545) 
Homo sapiens

>  <pchembl_median>  (545) 
4.67

$$$$
CHEMBL3605562
     RDKit          2D

 42 46  0  0  0  0  0  0  0  0999 V2000
   -7.7469   -3.0827    0.0000 C   0  0  0  0  0  0  0  0  0  0  0  0
   -6.8652   -4.2962    0.0000 C   0  0  0  0  0  0  0  0  0  0  0  0
   -7.7888   -5.4782    0.0000 O   0  0  0  0  0  0  0  0  0  0  0  0
   -5.3735   -4.1394    0.0000 O   0  0  0  0  0  0  0  0  0  0  0  0
   -4.4918   -5.3529    0.0000 C   0  0  0  0  0  0  0  0  0  0  0  0
   -3.0000   -5.1962    0.0000 C   0  0  0  0  0  0  0  0  0  0  0  0
   -3.7500   -3.8971    0.0000 C   0  0  0  0  0  0  0  0  0  0  0  0
   -3.0000   -2.5981    0.0000 C   0  0  0  0  0  0  0  0  0  0  0  0
   -1.5000   -2.5981    0.0000 C   0  0  0  0  0  0  0  0  0  0  0  0
   -0.7500   -3.8971    0.0000 C   0  0  0  0  0  0  0  0  0  0  0  0
    0.7500   -3.8971    0.0000 C   0  0  0  0  0  0  0  0  0  0  0  0
    1.5000   -2.5981    0.0000 C   0  0  0  0  0  0  0  0  0  0  0  0
    0.7500   -1.2990    0.0000 C   0  0  0  0  0  0  0  0  0  0  0  0
    1.5000    0.0000    0.0000 C   0  0  0  0  0  0  0  0  0  0  0  0
    0.7500    1.2990    0.0000 C   0  0  0  0  0  0  0  0  0  0  0  0
   -0.7500    1.2990    0.0000 C   0  0  0  0  0  0  0  0  0  0  0  0
   -1.5000    0.0000    0.0000 C   0  0  0  0  0  0  0  0  0  0  0  0
   -3.0000    0.0000    0.0000 O   0  0  0  0  0  0  0  0  0  0  0  0
   -0.7500   -1.2990    0.0000 C   0  0  0  0  0  0  0  0  0  0  0  0
   -2.2500   -1.2990    0.0000 C   0  0  0  0  0  0  0  0  0  0  0  0
   -1.5000   -5.1962    0.0000 C   0  0  0  0  0  0  0  0  0  0  0  0
   -0.0082   -5.3529    0.0000 O   0  0  0  0  0  0  0  0  0  0  0  0
   -1.0365   -6.6227    0.0000 C   0  0  0  0  0  0  0  0  0  0  0  0
    0.3901   -7.0863    0.0000 O   0  0  0  0  0  0  0  0  0  0  0  0
    0.7020   -8.5535    0.0000 C   0  0  0  0  0  0  0  0  0  0  0  0
    2.1286   -9.0170    0.0000 C   0  0  0  0  0  0  0  0  0  0  0  0
   -0.4127   -9.5572    0.0000 O   0  0  0  0  0  0  0  0  0  0  0  0
   -2.2500   -7.5044    0.0000 C   0  0  0  0  0  0  0  0  0  0  0  0
   -3.4635   -6.6227    0.0000 C   0  0  0  0  0  0  0  0  0  0  0  0
   -4.4625   -6.1780    0.0000 O   0  0  0  0  0  0  0  0  0  0  0  0
   -4.2135   -7.9218    0.0000 C   0  0  0  0  0  0  0  0  0  0  0  0
   -2.9145   -8.6718    0.0000 C   0  0  0  0  0  0  0  0  0  0  0  0
   -4.9635   -9.2208    0.0000 O   0  0  0  0  0  0  0  0  0  0  0  0
   -5.5126   -7.1718    0.0000 C   0  0  0  0  0  0  0  0  0  0  0  0
   -5.5126   -5.6718    0.0000 C   0  0  0  0  0  0  0  0  0  0  0  0
   -6.8116   -4.9218    0.0000 C   0  0  0  0  0  0  0  0  0  0  0  0
   -6.8116   -3.4218    0.0000 C   0  0  0  0  0  0  0  0  0  0  0  0
   -8.1106   -5.6718    0.0000 C   0  0  0  0  0  0  0  0  0  0  0  0
   -9.4097   -4.9218    0.0000 C   0  0  0  0  0  0  0  0  0  0  0  0
   -8.1106   -7.1718    0.0000 C   0  0  0  0  0  0  0  0  0  0  0  0
   -9.4097   -7.9218    0.0000 O   0  0  0  0  0  0  0  0  0  0  0  0
   -6.8116   -7.9218    0.0000 O   0  0  0  0  0  0  0  0  0  0  0  0
  1  2  1  0
  2  3  2  0
  2  4  1  0
  4  5  1  0
  6  5  1  6
  6  7  1  0
  7  8  1  0
  9  8  1  6
  9 10  1  0
 10 11  1  1
 11 12  1  0
 12 13  2  0
 13 14  1  0
 14 15  1  0
 15 16  2  0
 16 17  1  0
 17 18  2  0
 17 19  1  0
 19 20  1  6
 10 21  1  0
 21 22  1  1
 21 23  1  0
 23 24  1  1
 24 25  1  0
 25 26  1  0
 25 27  2  0
 23 28  1  0
 28 29  1  0
 29 30  1  6
 29 31  1  0
 31 32  1  6
 31 33  1  0
 31 34  1  0
 34 35  1  6
 35 36  1  0
 36 37  1  0
 36 38  2  0
 38 39  1  0
 38 40  1  0
 40 41  2  0
 40 42  1  0
 21  6  1  0
 42 34  1  0
 29  6  1  0
 19  9  1  0
 19 13  1  0
M  END
>  <assay_chembl_id>  (546) 
CHEMBL3607996

>  <assay_description>  (546) 
Inhibition of androgen receptor in human LNCAP cells assessed as inhibition of DHT-induced KLK2 gene expression by Array Plate assay

>  <parent_molecule_chembl_id>  (546) 
CHEMBL3605562

>  <canonical_smiles>  (546) 
CC(=O)OC[C@]12CC[C@H]3[C@@H](CC=C4CC=CC(=O)[C@@]43C)[C@]1(O)[C@@H](OC(C)=O)C[C@@]2(O)[C@@](C)(O)[C@H]1CC(C)=C(C)C(=O)O1

>  <standard_type>  (546) 
IC50

>  <standard_relation>  (546) 
=

>  <standard_value>  (546) 
1790.0

>  <standard_units>  (546) 
nM

>  <target_pref_name>  (546) 
Androgen Receptor

>  <target_chembl_id>  (546) 
CHEMBL1871

>  <target_organism>  (546) 
Homo sapiens

>  <pchembl_median>  (546) 
4.54

$$$$
CHEMBL3605560
     RDKit          2D

 38 42  0  0  0  0  0  0  0  0999 V2000
   -7.7469   -3.0827    0.0000 C   0  0  0  0  0  0  0  0  0  0  0  0
   -6.8652   -4.2962    0.0000 C   0  0  0  0  0  0  0  0  0  0  0  0
   -7.7888   -5.4782    0.0000 O   0  0  0  0  0  0  0  0  0  0  0  0
   -5.3735   -4.1394    0.0000 O   0  0  0  0  0  0  0  0  0  0  0  0
   -4.4918   -5.3529    0.0000 C   0  0  0  0  0  0  0  0  0  0  0  0
   -3.0000   -5.1962    0.0000 C   0  0  0  0  0  0  0  0  0  0  0  0
   -3.7500   -3.8971    0.0000 C   0  0  0  0  0  0  0  0  0  0  0  0
   -3.0000   -2.5981    0.0000 C   0  0  0  0  0  0  0  0  0  0  0  0
   -1.5000   -2.5981    0.0000 C   0  0  0  0  0  0  0  0  0  0  0  0
   -0.7500   -3.8971    0.0000 C   0  0  0  0  0  0  0  0  0  0  0  0
    0.7500   -3.8971    0.0000 C   0  0  0  0  0  0  0  0  0  0  0  0
    1.5000   -2.5981    0.0000 C   0  0  0  0  0  0  0  0  0  0  0  0
    0.7500   -1.2990    0.0000 C   0  0  0  0  0  0  0  0  0  0  0  0
    1.5000    0.0000    0.0000 C   0  0  0  0  0  0  0  0  0  0  0  0
    0.7500    1.2990    0.0000 C   0  0  0  0  0  0  0  0  0  0  0  0
   -0.7500    1.2990    0.0000 C   0  0  0  0  0  0  0  0  0  0  0  0
   -1.5000    0.0000    0.0000 C   0  0  0  0  0  0  0  0  0  0  0  0
   -3.0000    0.0000    0.0000 O   0  0  0  0  0  0  0  0  0  0  0  0
   -0.7500   -1.2990    0.0000 C   0  0  0  0  0  0  0  0  0  0  0  0
   -2.2500   -1.2990    0.0000 C   0  0  0  0  0  0  0  0  0  0  0  0
   -1.5000   -5.1962    0.0000 C   0  0  0  0  0  0  0  0  0  0  0  0
   -0.0082   -5.3529    0.0000 O   0  0  0  0  0  0  0  0  0  0  0  0
   -1.0365   -6.6227    0.0000 C   0  0  0  0  0  0  0  0  0  0  0  0
   -2.2500   -7.5044    0.0000 C   0  0  0  0  0  0  0  0  0  0  0  0
   -3.4635   -6.6227    0.0000 C   0  0  0  0  0  0  0  0  0  0  0  0
   -4.4625   -6.1780    0.0000 O   0  0  0  0  0  0  0  0  0  0  0  0
   -4.2135   -7.9218    0.0000 C   0  0  0  0  0  0  0  0  0  0  0  0
   -2.9145   -8.6718    0.0000 C   0  0  0  0  0  0  0  0  0  0  0  0
   -4.9635   -9.2208    0.0000 O   0  0  0  0  0  0  0  0  0  0  0  0
   -5.5126   -7.1718    0.0000 C   0  0  0  0  0  0  0  0  0  0  0  0
   -5.5126   -5.6718    0.0000 C   0  0  0  0  0  0  0  0  0  0  0  0
   -6.8116   -4.9218    0.0000 C   0  0  0  0  0  0  0  0  0  0  0  0
   -6.8116   -3.4218    0.0000 C   0  0  0  0  0  0  0  0  0  0  0  0
   -8.1106   -5.6718    0.0000 C   0  0  0  0  0  0  0  0  0  0  0  0
   -9.4097   -4.9218    0.0000 C   0  0  0  0  0  0  0  0  0  0  0  0
   -8.1106   -7.1718    0.0000 C   0  0  0  0  0  0  0  0  0  0  0  0
   -9.4097   -7.9218    0.0000 O   0  0  0  0  0  0  0  0  0  0  0  0
   -6.8116   -7.9218    0.0000 O   0  0  0  0  0  0  0  0  0  0  0  0
  1  2  1  0
  2  3  2  0
  2  4  1  0
  4  5  1  0
  6  5  1  6
  6  7  1  0
  7  8  1  0
  9  8  1  6
  9 10  1  0
 10 11  1  1
 11 12  1  0
 12 13  2  0
 13 14  1  0
 14 15  2  0
 15 16  1  0
 16 17  1  0
 17 18  2  0
 17 19  1  0
 19 20  1  6
 10 21  1  0
 21 22  1  1
 21 23  1  0
 23 24  1  0
 24 25  1  0
 25 26  1  6
 25 27  1  0
 27 28  1  6
 27 29  1  0
 27 30  1  0
 30 31  1  6
 31 32  1  0
 32 33  1  0
 32 34  2  0
 34 35  1  0
 34 36  1  0
 36 37  2  0
 36 38  1  0
 21  6  1  0
 38 30  1  0
 25  6  1  0
 19  9  1  0
 19 13  1  0
M  END
>  <assay_chembl_id>  (547) 
CHEMBL3607996

>  <assay_description>  (547) 
Inhibition of androgen receptor in human LNCAP cells assessed as inhibition of DHT-induced KLK2 gene expression by Array Plate assay

>  <parent_molecule_chembl_id>  (547) 
CHEMBL3605560

>  <canonical_smiles>  (547) 
CC(=O)OC[C@]12CC[C@H]3[C@@H](CC=C4C=CCC(=O)[C@@]43C)[C@]1(O)CC[C@@]2(O)[C@@](C)(O)[C@H]1CC(C)=C(C)C(=O)O1

>  <standard_type>  (547) 
IC50

>  <standard_relation>  (547) 
=

>  <standard_value>  (547) 
2400.0

>  <standard_units>  (547) 
nM

>  <target_pref_name>  (547) 
Androgen Receptor

>  <target_chembl_id>  (547) 
CHEMBL1871

>  <target_organism>  (547) 
Homo sapiens

>  <pchembl_median>  (547) 
8.11

$$$$
CHEMBL3605563
     RDKit          2D

 42 46  0  0  0  0  0  0  0  0999 V2000
   -7.7469   -3.0827    0.0000 C   0  0  0  0  0  0  0  0  0  0  0  0
   -6.8652   -4.2962    0.0000 C   0  0  0  0  0  0  0  0  0  0  0  0
   -7.7888   -5.4782    0.0000 O   0  0  0  0  0  0  0  0  0  0  0  0
   -5.3735   -4.1394    0.0000 O   0  0  0  0  0  0  0  0  0  0  0  0
   -4.4918   -5.3529    0.0000 C   0  0  0  0  0  0  0  0  0  0  0  0
   -3.0000   -5.1962    0.0000 C   0  0  0  0  0  0  0  0  0  0  0  0
   -3.7500   -3.8971    0.0000 C   0  0  0  0  0  0  0  0  0  0  0  0
   -3.0000   -2.5981    0.0000 C   0  0  0  0  0  0  0  0  0  0  0  0
   -1.5000   -2.5981    0.0000 C   0  0  0  0  0  0  0  0  0  0  0  0
   -0.7500   -3.8971    0.0000 C   0  0  0  0  0  0  0  0  0  0  0  0
    0.7500   -3.8971    0.0000 C   0  0  0  0  0  0  0  0  0  0  0  0
    1.5000   -2.5981    0.0000 C   0  0  0  0  0  0  0  0  0  0  0  0
    0.7500   -1.2990    0.0000 C   0  0  0  0  0  0  0  0  0  0  0  0
    1.5000    0.0000    0.0000 C   0  0  0  0  0  0  0  0  0  0  0  0
    0.7500    1.2990    0.0000 C   0  0  0  0  0  0  0  0  0  0  0  0
   -0.7500    1.2990    0.0000 C   0  0  0  0  0  0  0  0  0  0  0  0
   -1.5000    0.0000    0.0000 C   0  0  0  0  0  0  0  0  0  0  0  0
   -3.0000    0.0000    0.0000 O   0  0  0  0  0  0  0  0  0  0  0  0
   -0.7500   -1.2990    0.0000 C   0  0  0  0  0  0  0  0  0  0  0  0
   -2.2500   -1.2990    0.0000 C   0  0  0  0  0  0  0  0  0  0  0  0
   -1.5000   -5.1962    0.0000 C   0  0  0  0  0  0  0  0  0  0  0  0
   -0.0082   -5.3529    0.0000 O   0  0  0  0  0  0  0  0  0  0  0  0
   -1.0365   -6.6227    0.0000 C   0  0  0  0  0  0  0  0  0  0  0  0
    0.3901   -7.0863    0.0000 O   0  0  0  0  0  0  0  0  0  0  0  0
    0.7020   -8.5535    0.0000 C   0  0  0  0  0  0  0  0  0  0  0  0
    2.1286   -9.0170    0.0000 C   0  0  0  0  0  0  0  0  0  0  0  0
   -0.4127   -9.5572    0.0000 O   0  0  0  0  0  0  0  0  0  0  0  0
   -2.2500   -7.5044    0.0000 C   0  0  0  0  0  0  0  0  0  0  0  0
   -3.4635   -6.6227    0.0000 C   0  0  0  0  0  0  0  0  0  0  0  0
   -4.4625   -6.1780    0.0000 O   0  0  0  0  0  0  0  0  0  0  0  0
   -4.2135   -7.9218    0.0000 C   0  0  0  0  0  0  0  0  0  0  0  0
   -2.9145   -8.6718    0.0000 C   0  0  0  0  0  0  0  0  0  0  0  0
   -4.9635   -9.2208    0.0000 O   0  0  0  0  0  0  0  0  0  0  0  0
   -5.5126   -7.1718    0.0000 C   0  0  0  0  0  0  0  0  0  0  0  0
   -5.5126   -5.6718    0.0000 C   0  0  0  0  0  0  0  0  0  0  0  0
   -6.8116   -4.9218    0.0000 C   0  0  0  0  0  0  0  0  0  0  0  0
   -6.8116   -3.4218    0.0000 C   0  0  0  0  0  0  0  0  0  0  0  0
   -8.1106   -5.6718    0.0000 C   0  0  0  0  0  0  0  0  0  0  0  0
   -9.4097   -4.9218    0.0000 C   0  0  0  0  0  0  0  0  0  0  0  0
   -8.1106   -7.1718    0.0000 C   0  0  0  0  0  0  0  0  0  0  0  0
   -9.4097   -7.9218    0.0000 O   0  0  0  0  0  0  0  0  0  0  0  0
   -6.8116   -7.9218    0.0000 O   0  0  0  0  0  0  0  0  0  0  0  0
  1  2  1  0
  2  3  2  0
  2  4  1  0
  4  5  1  0
  6  5  1  6
  6  7  1  0
  7  8  1  0
  9  8  1  6
  9 10  1  0
 10 11  1  1
 11 12  1  0
 12 13  2  0
 13 14  1  0
 14 15  2  0
 15 16  1  0
 16 17  1  0
 17 18  2  0
 17 19  1  0
 19 20  1  6
 10 21  1  0
 21 22  1  1
 21 23  1  0
 23 24  1  1
 24 25  1  0
 25 26  1  0
 25 27  2  0
 23 28  1  0
 28 29  1  0
 29 30  1  6
 29 31  1  0
 31 32  1  6
 31 33  1  0
 31 34  1  0
 34 35  1  6
 35 36  1  0
 36 37  1  0
 36 38  2  0
 38 39  1  0
 38 40  1  0
 40 41  2  0
 40 42  1  0
 21  6  1  0
 42 34  1  0
 29  6  1  0
 19  9  1  0
 19 13  1  0
M  END
>  <assay_chembl_id>  (548) 
CHEMBL3607996

>  <assay_description>  (548) 
Inhibition of androgen receptor in human LNCAP cells assessed as inhibition of DHT-induced KLK2 gene expression by Array Plate assay

>  <parent_molecule_chembl_id>  (548) 
CHEMBL3605563

>  <canonical_smiles>  (548) 
CC(=O)OC[C@]12CC[C@H]3[C@@H](CC=C4C=CCC(=O)[C@@]43C)[C@]1(O)[C@@H](OC(C)=O)C[C@@]2(O)[C@@](C)(O)[C@H]1CC(C)=C(C)C(=O)O1

>  <standard_type>  (548) 
IC50

>  <standard_relation>  (548) 
=

>  <standard_value>  (548) 
620.0

>  <standard_units>  (548) 
nM

>  <target_pref_name>  (548) 
Androgen Receptor

>  <target_chembl_id>  (548) 
CHEMBL1871

>  <target_organism>  (548) 
Homo sapiens

>  <pchembl_median>  (548) 
8.41

$$$$
CHEMBL3605564
     RDKit          2D

 38 42  0  0  0  0  0  0  0  0999 V2000
   -7.7469   -3.0827    0.0000 C   0  0  0  0  0  0  0  0  0  0  0  0
   -6.8652   -4.2962    0.0000 C   0  0  0  0  0  0  0  0  0  0  0  0
   -7.7888   -5.4782    0.0000 O   0  0  0  0  0  0  0  0  0  0  0  0
   -5.3735   -4.1394    0.0000 O   0  0  0  0  0  0  0  0  0  0  0  0
   -4.4918   -5.3529    0.0000 C   0  0  0  0  0  0  0  0  0  0  0  0
   -3.0000   -5.1962    0.0000 C   0  0  0  0  0  0  0  0  0  0  0  0
   -3.7500   -3.8971    0.0000 C   0  0  0  0  0  0  0  0  0  0  0  0
   -3.0000   -2.5981    0.0000 C   0  0  0  0  0  0  0  0  0  0  0  0
   -1.5000   -2.5981    0.0000 C   0  0  0  0  0  0  0  0  0  0  0  0
   -0.7500   -3.8971    0.0000 C   0  0  0  0  0  0  0  0  0  0  0  0
    0.7500   -3.8971    0.0000 C   0  0  0  0  0  0  0  0  0  0  0  0
    1.5000   -2.5981    0.0000 C   0  0  0  0  0  0  0  0  0  0  0  0
    0.7500   -1.2990    0.0000 C   0  0  0  0  0  0  0  0  0  0  0  0
    1.5000    0.0000    0.0000 C   0  0  0  0  0  0  0  0  0  0  0  0
    0.7500    1.2990    0.0000 C   0  0  0  0  0  0  0  0  0  0  0  0
   -0.7500    1.2990    0.0000 C   0  0  0  0  0  0  0  0  0  0  0  0
   -1.5000    0.0000    0.0000 C   0  0  0  0  0  0  0  0  0  0  0  0
   -3.0000    0.0000    0.0000 O   0  0  0  0  0  0  0  0  0  0  0  0
   -0.7500   -1.2990    0.0000 C   0  0  0  0  0  0  0  0  0  0  0  0
   -2.2500   -1.2990    0.0000 C   0  0  0  0  0  0  0  0  0  0  0  0
   -1.5000   -5.1962    0.0000 C   0  0  0  0  0  0  0  0  0  0  0  0
   -0.0082   -5.3529    0.0000 O   0  0  0  0  0  0  0  0  0  0  0  0
   -1.0365   -6.6227    0.0000 C   0  0  0  0  0  0  0  0  0  0  0  0
   -2.2500   -7.5044    0.0000 C   0  0  0  0  0  0  0  0  0  0  0  0
   -3.4635   -6.6227    0.0000 C   0  0  0  0  0  0  0  0  0  0  0  0
   -4.4625   -6.1780    0.0000 O   0  0  0  0  0  0  0  0  0  0  0  0
   -4.2135   -7.9218    0.0000 C   0  0  0  0  0  0  0  0  0  0  0  0
   -2.9145   -8.6718    0.0000 C   0  0  0  0  0  0  0  0  0  0  0  0
   -4.9635   -9.2208    0.0000 O   0  0  0  0  0  0  0  0  0  0  0  0
   -5.5126   -7.1718    0.0000 C   0  0  0  0  0  0  0  0  0  0  0  0
   -5.5126   -5.6718    0.0000 C   0  0  0  0  0  0  0  0  0  0  0  0
   -6.8116   -4.9218    0.0000 C   0  0  0  0  0  0  0  0  0  0  0  0
   -6.8116   -3.4218    0.0000 C   0  0  0  0  0  0  0  0  0  0  0  0
   -8.1106   -5.6718    0.0000 C   0  0  0  0  0  0  0  0  0  0  0  0
   -9.4097   -4.9218    0.0000 C   0  0  0  0  0  0  0  0  0  0  0  0
   -8.1106   -7.1718    0.0000 C   0  0  0  0  0  0  0  0  0  0  0  0
   -9.4097   -7.9218    0.0000 O   0  0  0  0  0  0  0  0  0  0  0  0
   -6.8116   -7.9218    0.0000 O   0  0  0  0  0  0  0  0  0  0  0  0
  1  2  1  0
  2  3  2  0
  2  4  1  0
  4  5  1  0
  6  5  1  6
  6  7  1  0
  7  8  1  0
  9  8  1  6
  9 10  1  0
 10 11  1  1
 11 12  1  0
 12 13  2  0
 13 14  1  0
 14 15  1  0
 15 16  2  0
 16 17  1  0
 17 18  2  0
 17 19  1  0
 19 20  1  6
 10 21  1  0
 21 22  1  1
 21 23  1  0
 23 24  1  0
 24 25  1  0
 25 26  1  6
 25 27  1  0
 27 28  1  6
 27 29  1  0
 27 30  1  0
 30 31  1  6
 31 32  1  0
 32 33  1  0
 32 34  2  0
 34 35  1  0
 34 36  1  0
 36 37  2  0
 36 38  1  0
 21  6  1  0
 38 30  1  0
 25  6  1  0
 19  9  1  0
 19 13  1  0
M  END
>  <assay_chembl_id>  (549) 
CHEMBL3607996

>  <assay_description>  (549) 
Inhibition of androgen receptor in human LNCAP cells assessed as inhibition of DHT-induced KLK2 gene expression by Array Plate assay

>  <parent_molecule_chembl_id>  (549) 
CHEMBL3605564

>  <canonical_smiles>  (549) 
CC(=O)OC[C@]12CC[C@H]3[C@@H](CC=C4CC=CC(=O)[C@@]43C)[C@]1(O)CC[C@@]2(O)[C@@](C)(O)[C@H]1CC(C)=C(C)C(=O)O1

>  <standard_type>  (549) 
IC50

>  <standard_relation>  (549) 
=

>  <standard_value>  (549) 
580.0

>  <standard_units>  (549) 
nM

>  <target_pref_name>  (549) 
Androgen Receptor

>  <target_chembl_id>  (549) 
CHEMBL1871

>  <target_organism>  (549) 
Homo sapiens

>  <pchembl_median>  (549) 
8.31

$$$$
CHEMBL3623114
     RDKit          2D

 24 27  0  0  0  0  0  0  0  0999 V2000
    0.8578    2.6401    0.0000 C   0  0  0  0  0  0  0  0  0  0  0  0
    0.3943    1.2135    0.0000 C   0  0  0  0  0  0  0  0  0  0  0  0
    1.2760    0.0000    0.0000 C   0  0  0  0  0  0  0  0  0  0  0  0
    0.3943   -1.2135    0.0000 C   0  0  0  0  0  0  0  0  0  0  0  0
    0.8578   -2.6401    0.0000 O   0  0  0  0  0  0  0  0  0  0  0  0
   -1.0323   -0.7500    0.0000 C   0  0  0  0  0  0  0  0  0  0  0  0
   -2.2458   -1.6317    0.0000 C   0  0  0  0  0  0  0  0  0  0  0  0
   -1.0323    0.7500    0.0000 O   0  0  0  0  0  0  0  0  0  0  0  0
   -1.9140    0.4635    0.0000 C   0  0  0  0  0  0  0  0  0  0  0  0
   -3.3405    0.9271    0.0000 C   0  0  0  0  0  0  0  0  0  0  0  0
   -4.5541    0.0454    0.0000 O   0  0  0  0  0  0  0  0  0  0  0  0
   -3.3405    2.4271    0.0000 N   0  0  0  0  0  0  0  0  0  0  0  0
   -4.5541    3.3087    0.0000 C   0  0  0  0  0  0  0  0  0  0  0  0
   -4.3973    4.8005    0.0000 C   0  0  0  0  0  0  0  0  0  0  0  0
   -5.6108    5.6822    0.0000 C   0  0  0  0  0  0  0  0  0  0  0  0
   -6.9811    5.0721    0.0000 C   0  0  0  0  0  0  0  0  0  0  0  0
   -8.1947    5.9538    0.0000 C   0  0  0  0  0  0  0  0  0  0  0  0
   -9.4082    6.8354    0.0000 N   0  0  0  0  0  0  0  0  0  0  0  0
   -7.1379    3.5803    0.0000 C   0  0  0  0  0  0  0  0  0  0  0  0
   -8.5082    2.9702    0.0000 I   0  0  0  0  0  0  0  0  0  0  0  0
   -5.9244    2.6986    0.0000 C   0  0  0  0  0  0  0  0  0  0  0  0
   -1.9140    2.8906    0.0000 C   0  0  0  0  0  0  0  0  0  0  0  0
   -1.4504    4.3172    0.0000 O   0  0  0  0  0  0  0  0  0  0  0  0
   -1.0323    1.6771    0.0000 C   0  0  0  0  0  0  0  0  0  0  0  0
  2  1  1  1
  2  3  1  0
  3  4  1  0
  4  5  1  6
  4  6  1  0
  6  7  1  6
  6  8  1  0
  6  9  1  0
  9 10  1  6
 10 11  2  0
 10 12  1  0
 12 13  1  0
 13 14  2  0
 14 15  1  0
 15 16  2  0
 16 17  1  0
 17 18  3  0
 16 19  1  0
 19 20  1  0
 19 21  2  0
 12 22  1  0
 22 23  2  0
 24 22  1  6
  8  2  1  0
 24  9  1  0
 24  2  1  0
 21 13  1  0
M  END
>  <assay_chembl_id>  (550) 
CHEMBL3624234

>  <assay_description>  (550) 
Antagonist activity at androgen receptor in human MDA-MB-453 cells assessed as inhibition of DHT-induced PSA expression by alkaline phosphatase reporter gene assay

>  <parent_molecule_chembl_id>  (550) 
CHEMBL3623114

>  <canonical_smiles>  (550) 
C[C@@]12C[C@H](O)[C@](C)(O1)[C@@H]1C(=O)N(c3ccc(C#N)c(I)c3)C(=O)[C@@H]12

>  <standard_type>  (550) 
IC50

>  <standard_relation>  (550) 
=

>  <standard_value>  (550) 
10.0

>  <standard_units>  (550) 
nM

>  <target_pref_name>  (550) 
Androgen Receptor

>  <target_chembl_id>  (550) 
CHEMBL1871

>  <target_organism>  (550) 
Homo sapiens

>  <pchembl_median>  (550) 
4.43

$$$$
CHEMBL3623116
     RDKit          2D

 32 35  0  0  0  0  0  0  0  0999 V2000
    5.7760   -2.5981    0.0000 C   0  0  0  0  0  0  0  0  0  0  0  0
    5.0260   -1.2990    0.0000 C   0  0  0  0  0  0  0  0  0  0  0  0
    5.7760    0.0000    0.0000 C   0  0  0  0  0  0  0  0  0  0  0  0
    3.5260   -1.2990    0.0000 O   0  0  0  0  0  0  0  0  0  0  0  0
    2.7760    0.0000    0.0000 C   0  0  0  0  0  0  0  0  0  0  0  0
    3.5260    1.2990    0.0000 O   0  0  0  0  0  0  0  0  0  0  0  0
    1.2760    0.0000    0.0000 C   0  0  0  0  0  0  0  0  0  0  0  0
    0.3943    1.2135    0.0000 C   0  0  0  0  0  0  0  0  0  0  0  0
   -1.0323    0.7500    0.0000 C   0  0  0  0  0  0  0  0  0  0  0  0
   -2.2458    1.6317    0.0000 C   0  0  0  0  0  0  0  0  0  0  0  0
   -1.0323   -0.7500    0.0000 O   0  0  0  0  0  0  0  0  0  0  0  0
    0.3943   -1.2135    0.0000 C   0  0  0  0  0  0  0  0  0  0  0  0
    0.8578   -2.6401    0.0000 C   0  0  0  0  0  0  0  0  0  0  0  0
   -1.0323   -1.6771    0.0000 C   0  0  0  0  0  0  0  0  0  0  0  0
   -1.9140   -2.8906    0.0000 C   0  0  0  0  0  0  0  0  0  0  0  0
   -1.4504   -4.3172    0.0000 O   0  0  0  0  0  0  0  0  0  0  0  0
   -3.3405   -2.4271    0.0000 N   0  0  0  0  0  0  0  0  0  0  0  0
   -4.5541   -3.3087    0.0000 C   0  0  0  0  0  0  0  0  0  0  0  0
   -5.9244   -2.6986    0.0000 C   0  0  0  0  0  0  0  0  0  0  0  0
   -7.1379   -3.5803    0.0000 C   0  0  0  0  0  0  0  0  0  0  0  0
   -6.9811   -5.0721    0.0000 C   0  0  0  0  0  0  0  0  0  0  0  0
   -8.1947   -5.9538    0.0000 C   0  0  0  0  0  0  0  0  0  0  0  0
   -9.4082   -6.8354    0.0000 N   0  0  0  0  0  0  0  0  0  0  0  0
   -5.6108   -5.6822    0.0000 C   0  0  0  0  0  0  0  0  0  0  0  0
   -5.4540   -7.1740    0.0000 C   0  0  0  0  0  0  0  0  0  0  0  0
   -5.2972   -8.6658    0.0000 F   0  0  0  0  0  0  0  0  0  0  0  0
   -3.9622   -7.0172    0.0000 F   0  0  0  0  0  0  0  0  0  0  0  0
   -6.9458   -7.3308    0.0000 F   0  0  0  0  0  0  0  0  0  0  0  0
   -4.3973   -4.8005    0.0000 C   0  0  0  0  0  0  0  0  0  0  0  0
   -3.3405   -0.9271    0.0000 C   0  0  0  0  0  0  0  0  0  0  0  0
   -4.5541   -0.0454    0.0000 O   0  0  0  0  0  0  0  0  0  0  0  0
   -1.9140   -0.4635    0.0000 C   0  0  0  0  0  0  0  0  0  0  0  0
  1  2  1  0
  2  3  1  0
  2  4  1  0
  4  5  1  0
  5  6  2  0
  7  5  1  1
  7  8  1  0
  8  9  1  0
  9 10  1  1
  9 11  1  0
 11 12  1  0
 12 13  1  6
 12 14  1  0
 14 15  1  6
 15 16  2  0
 15 17  1  0
 17 18  1  0
 18 19  2  0
 19 20  1  0
 20 21  2  0
 21 22  1  0
 22 23  3  0
 21 24  1  0
 24 25  1  0
 25 26  1  0
 25 27  1  0
 25 28  1  0
 24 29  2  0
 17 30  1  0
 30 31  2  0
 32 30  1  6
 12  7  1  0
 32 14  1  0
 32  9  1  0
 29 18  1  0
M  END
>  <assay_chembl_id>  (551) 
CHEMBL3624234

>  <assay_description>  (551) 
Antagonist activity at androgen receptor in human MDA-MB-453 cells assessed as inhibition of DHT-induced PSA expression by alkaline phosphatase reporter gene assay

>  <parent_molecule_chembl_id>  (551) 
CHEMBL3623116

>  <canonical_smiles>  (551) 
CC(C)OC(=O)[C@@H]1C[C@]2(C)O[C@]1(C)[C@@H]1C(=O)N(c3ccc(C#N)c(C(F)(F)F)c3)C(=O)[C@@H]12

>  <standard_type>  (551) 
IC50

>  <standard_relation>  (551) 
=

>  <standard_value>  (551) 
22.0

>  <standard_units>  (551) 
nM

>  <target_pref_name>  (551) 
Androgen Receptor

>  <target_chembl_id>  (551) 
CHEMBL1871

>  <target_organism>  (551) 
Homo sapiens

>  <pchembl_median>  (551) 
7.83

$$$$
CHEMBL3623117
     RDKit          2D

 36 40  0  0  0  0  0  0  0  0999 V2000
    2.7886    4.3786    0.0000 C   0  0  0  0  0  0  0  0  0  0  0  0
    2.3250    2.9520    0.0000 N   0  0  0  0  0  0  0  0  0  0  0  0
    0.8578    2.6401    0.0000 C   0  0  0  0  0  0  0  0  0  0  0  0
   -0.1459    3.7548    0.0000 O   0  0  0  0  0  0  0  0  0  0  0  0
    0.3943    1.2135    0.0000 C   0  0  0  0  0  0  0  0  0  0  0  0
    1.2760    0.0000    0.0000 C   0  0  0  0  0  0  0  0  0  0  0  0
    0.3943   -1.2135    0.0000 C   0  0  0  0  0  0  0  0  0  0  0  0
    0.8578   -2.6401    0.0000 C   0  0  0  0  0  0  0  0  0  0  0  0
   -1.0323   -0.7500    0.0000 O   0  0  0  0  0  0  0  0  0  0  0  0
   -1.0323    0.7500    0.0000 C   0  0  0  0  0  0  0  0  0  0  0  0
   -2.2458    1.6317    0.0000 C   0  0  0  0  0  0  0  0  0  0  0  0
   -1.9140   -0.4635    0.0000 C   0  0  0  0  0  0  0  0  0  0  0  0
   -3.3405   -0.9271    0.0000 C   0  0  0  0  0  0  0  0  0  0  0  0
   -4.5541   -0.0454    0.0000 O   0  0  0  0  0  0  0  0  0  0  0  0
   -3.3405   -2.4271    0.0000 N   0  0  0  0  0  0  0  0  0  0  0  0
   -4.5541   -3.3087    0.0000 C   0  0  0  0  0  0  0  0  0  0  0  0
   -5.9244   -2.6986    0.0000 C   0  0  0  0  0  0  0  0  0  0  0  0
   -7.1379   -3.5803    0.0000 C   0  0  0  0  0  0  0  0  0  0  0  0
   -6.9811   -5.0721    0.0000 C   0  0  0  0  0  0  0  0  0  0  0  0
   -8.1947   -5.9538    0.0000 C   0  0  0  0  0  0  0  0  0  0  0  0
   -9.4082   -6.8354    0.0000 N   0  0  0  0  0  0  0  0  0  0  0  0
   -5.6108   -5.6822    0.0000 C   0  0  0  0  0  0  0  0  0  0  0  0
   -5.4540   -7.1740    0.0000 C   0  0  0  0  0  0  0  0  0  0  0  0
   -5.2972   -8.6658    0.0000 F   0  0  0  0  0  0  0  0  0  0  0  0
   -3.9622   -7.0172    0.0000 F   0  0  0  0  0  0  0  0  0  0  0  0
   -6.9458   -7.3308    0.0000 F   0  0  0  0  0  0  0  0  0  0  0  0
   -4.3973   -4.8005    0.0000 C   0  0  0  0  0  0  0  0  0  0  0  0
   -1.9140   -2.8906    0.0000 C   0  0  0  0  0  0  0  0  0  0  0  0
   -1.4504   -4.3172    0.0000 O   0  0  0  0  0  0  0  0  0  0  0  0
   -1.0323   -1.6771    0.0000 C   0  0  0  0  0  0  0  0  0  0  0  0
    3.3287    1.8373    0.0000 C   0  0  0  0  0  0  0  0  0  0  0  0
    2.8652    0.4107    0.0000 C   0  0  0  0  0  0  0  0  0  0  0  0
    3.8689   -0.7040    0.0000 C   0  0  0  0  0  0  0  0  0  0  0  0
    5.3361   -0.3922    0.0000 C   0  0  0  0  0  0  0  0  0  0  0  0
    5.7997    1.0344    0.0000 C   0  0  0  0  0  0  0  0  0  0  0  0
    4.7960    2.1491    0.0000 C   0  0  0  0  0  0  0  0  0  0  0  0
  1  2  1  0
  2  3  1  0
  3  4  2  0
  5  3  1  6
  5  6  1  0
  6  7  1  0
  7  8  1  6
  7  9  1  0
  9 10  1  0
 10 11  1  1
 10 12  1  0
 12 13  1  1
 13 14  2  0
 13 15  1  0
 15 16  1  0
 16 17  2  0
 17 18  1  0
 18 19  2  0
 19 20  1  0
 20 21  3  0
 19 22  1  0
 22 23  1  0
 23 24  1  0
 23 25  1  0
 23 26  1  0
 22 27  2  0
 15 28  1  0
 28 29  2  0
 30 28  1  1
  2 31  1  0
 31 32  2  0
 32 33  1  0
 33 34  2  0
 34 35  1  0
 35 36  2  0
 10  5  1  0
 30 12  1  0
 36 31  1  0
 30  7  1  0
 27 16  1  0
M  END
>  <assay_chembl_id>  (552) 
CHEMBL3624234

>  <assay_description>  (552) 
Antagonist activity at androgen receptor in human MDA-MB-453 cells assessed as inhibition of DHT-induced PSA expression by alkaline phosphatase reporter gene assay

>  <parent_molecule_chembl_id>  (552) 
CHEMBL3623117

>  <canonical_smiles>  (552) 
CN(C(=O)[C@@H]1C[C@]2(C)O[C@]1(C)[C@@H]1C(=O)N(c3ccc(C#N)c(C(F)(F)F)c3)C(=O)[C@@H]12)c1ccccc1

>  <standard_type>  (552) 
IC50

>  <standard_relation>  (552) 
=

>  <standard_value>  (552) 
34.0

>  <standard_units>  (552) 
nM

>  <target_pref_name>  (552) 
Androgen Receptor

>  <target_chembl_id>  (552) 
CHEMBL1871

>  <target_organism>  (552) 
Homo sapiens

>  <pchembl_median>  (552) 
6.78

$$$$
CHEMBL3623118
     RDKit          2D

 27 30  0  0  0  0  0  0  0  0999 V2000
    0.8578    2.6401    0.0000 C   0  0  0  0  0  0  0  0  0  0  0  0
    0.3943    1.2135    0.0000 C   0  0  0  0  0  0  0  0  0  0  0  0
    1.2760    0.0000    0.0000 C   0  0  0  0  0  0  0  0  0  0  0  0
    0.3943   -1.2135    0.0000 C   0  0  0  0  0  0  0  0  0  0  0  0
    0.8578   -2.6401    0.0000 N   0  0  0  0  0  0  0  0  0  0  0  0
   -1.0323   -0.7500    0.0000 C   0  0  0  0  0  0  0  0  0  0  0  0
   -2.2458   -1.6317    0.0000 C   0  0  0  0  0  0  0  0  0  0  0  0
   -1.0323    0.7500    0.0000 O   0  0  0  0  0  0  0  0  0  0  0  0
   -1.9140    0.4635    0.0000 C   0  0  0  0  0  0  0  0  0  0  0  0
   -3.3405    0.9271    0.0000 C   0  0  0  0  0  0  0  0  0  0  0  0
   -4.5541    0.0454    0.0000 O   0  0  0  0  0  0  0  0  0  0  0  0
   -3.3405    2.4271    0.0000 N   0  0  0  0  0  0  0  0  0  0  0  0
   -4.5541    3.3087    0.0000 C   0  0  0  0  0  0  0  0  0  0  0  0
   -4.3973    4.8005    0.0000 C   0  0  0  0  0  0  0  0  0  0  0  0
   -5.6108    5.6822    0.0000 C   0  0  0  0  0  0  0  0  0  0  0  0
   -6.9811    5.0721    0.0000 C   0  0  0  0  0  0  0  0  0  0  0  0
   -8.1947    5.9538    0.0000 C   0  0  0  0  0  0  0  0  0  0  0  0
   -9.4082    6.8354    0.0000 N   0  0  0  0  0  0  0  0  0  0  0  0
   -7.1379    3.5803    0.0000 C   0  0  0  0  0  0  0  0  0  0  0  0
   -8.5082    2.9702    0.0000 C   0  0  0  0  0  0  0  0  0  0  0  0
   -9.8786    2.3601    0.0000 F   0  0  0  0  0  0  0  0  0  0  0  0
   -7.8981    1.5999    0.0000 F   0  0  0  0  0  0  0  0  0  0  0  0
   -9.1183    4.3405    0.0000 F   0  0  0  0  0  0  0  0  0  0  0  0
   -5.9244    2.6986    0.0000 C   0  0  0  0  0  0  0  0  0  0  0  0
   -1.9140    2.8906    0.0000 C   0  0  0  0  0  0  0  0  0  0  0  0
   -1.4504    4.3172    0.0000 O   0  0  0  0  0  0  0  0  0  0  0  0
   -1.0323    1.6771    0.0000 C   0  0  0  0  0  0  0  0  0  0  0  0
  2  1  1  1
  2  3  1  0
  3  4  1  0
  4  5  1  1
  4  6  1  0
  6  7  1  6
  6  8  1  0
  6  9  1  0
  9 10  1  6
 10 11  2  0
 10 12  1  0
 12 13  1  0
 13 14  2  0
 14 15  1  0
 15 16  2  0
 16 17  1  0
 17 18  3  0
 16 19  1  0
 19 20  1  0
 20 21  1  0
 20 22  1  0
 20 23  1  0
 19 24  2  0
 12 25  1  0
 25 26  2  0
 27 25  1  6
  8  2  1  0
 27  9  1  0
 27  2  1  0
 24 13  1  0
M  END
>  <assay_chembl_id>  (553) 
CHEMBL3624234

>  <assay_description>  (553) 
Antagonist activity at androgen receptor in human MDA-MB-453 cells assessed as inhibition of DHT-induced PSA expression by alkaline phosphatase reporter gene assay

>  <parent_molecule_chembl_id>  (553) 
CHEMBL3623118

>  <canonical_smiles>  (553) 
C[C@@]12C[C@@H](N)[C@](C)(O1)[C@@H]1C(=O)N(c3ccc(C#N)c(C(F)(F)F)c3)C(=O)[C@@H]12

>  <standard_type>  (553) 
IC50

>  <standard_relation>  (553) 
=

>  <standard_value>  (553) 
60.0

>  <standard_units>  (553) 
nM

>  <target_pref_name>  (553) 
Androgen Receptor

>  <target_chembl_id>  (553) 
CHEMBL1871

>  <target_organism>  (553) 
Homo sapiens

>  <pchembl_median>  (553) 
8.89

$$$$
CHEMBL3623119
     RDKit          2D

 31 34  0  0  0  0  0  0  0  0999 V2000
    5.7760   -2.5981    0.0000 C   0  0  0  0  0  0  0  0  0  0  0  0
    5.0260   -1.2990    0.0000 C   0  0  0  0  0  0  0  0  0  0  0  0
    3.5260   -1.2990    0.0000 C   0  0  0  0  0  0  0  0  0  0  0  0
    2.7760   -2.5981    0.0000 O   0  0  0  0  0  0  0  0  0  0  0  0
    2.7760    0.0000    0.0000 N   0  0  0  0  0  0  0  0  0  0  0  0
    1.2760    0.0000    0.0000 C   0  0  0  0  0  0  0  0  0  0  0  0
    0.3943    1.2135    0.0000 C   0  0  0  0  0  0  0  0  0  0  0  0
   -1.0323    0.7500    0.0000 C   0  0  0  0  0  0  0  0  0  0  0  0
   -2.2458    1.6317    0.0000 C   0  0  0  0  0  0  0  0  0  0  0  0
   -1.0323   -0.7500    0.0000 O   0  0  0  0  0  0  0  0  0  0  0  0
    0.3943   -1.2135    0.0000 C   0  0  0  0  0  0  0  0  0  0  0  0
    0.8578   -2.6401    0.0000 C   0  0  0  0  0  0  0  0  0  0  0  0
   -1.0323   -1.6771    0.0000 C   0  0  0  0  0  0  0  0  0  0  0  0
   -1.9140   -2.8906    0.0000 C   0  0  0  0  0  0  0  0  0  0  0  0
   -1.4504   -4.3172    0.0000 O   0  0  0  0  0  0  0  0  0  0  0  0
   -3.3405   -2.4271    0.0000 N   0  0  0  0  0  0  0  0  0  0  0  0
   -4.5541   -3.3087    0.0000 C   0  0  0  0  0  0  0  0  0  0  0  0
   -5.9244   -2.6986    0.0000 C   0  0  0  0  0  0  0  0  0  0  0  0
   -7.1379   -3.5803    0.0000 C   0  0  0  0  0  0  0  0  0  0  0  0
   -6.9811   -5.0721    0.0000 C   0  0  0  0  0  0  0  0  0  0  0  0
   -8.1947   -5.9538    0.0000 C   0  0  0  0  0  0  0  0  0  0  0  0
   -9.4082   -6.8354    0.0000 N   0  0  0  0  0  0  0  0  0  0  0  0
   -5.6108   -5.6822    0.0000 C   0  0  0  0  0  0  0  0  0  0  0  0
   -5.4540   -7.1740    0.0000 C   0  0  0  0  0  0  0  0  0  0  0  0
   -5.2972   -8.6658    0.0000 F   0  0  0  0  0  0  0  0  0  0  0  0
   -3.9622   -7.0172    0.0000 F   0  0  0  0  0  0  0  0  0  0  0  0
   -6.9458   -7.3308    0.0000 F   0  0  0  0  0  0  0  0  0  0  0  0
   -4.3973   -4.8005    0.0000 C   0  0  0  0  0  0  0  0  0  0  0  0
   -3.3405   -0.9271    0.0000 C   0  0  0  0  0  0  0  0  0  0  0  0
   -4.5541   -0.0454    0.0000 O   0  0  0  0  0  0  0  0  0  0  0  0
   -1.9140   -0.4635    0.0000 C   0  0  0  0  0  0  0  0  0  0  0  0
  1  2  1  0
  2  3  1  0
  3  4  2  0
  3  5  1  0
  6  5  1  1
  6  7  1  0
  7  8  1  0
  8  9  1  1
  8 10  1  0
 10 11  1  0
 11 12  1  6
 11 13  1  0
 13 14  1  6
 14 15  2  0
 14 16  1  0
 16 17  1  0
 17 18  2  0
 18 19  1  0
 19 20  2  0
 20 21  1  0
 21 22  3  0
 20 23  1  0
 23 24  1  0
 24 25  1  0
 24 26  1  0
 24 27  1  0
 23 28  2  0
 16 29  1  0
 29 30  2  0
 31 29  1  6
 11  6  1  0
 31 13  1  0
 31  8  1  0
 28 17  1  0
M  END
>  <assay_chembl_id>  (554) 
CHEMBL3624234

>  <assay_description>  (554) 
Antagonist activity at androgen receptor in human MDA-MB-453 cells assessed as inhibition of DHT-induced PSA expression by alkaline phosphatase reporter gene assay

>  <parent_molecule_chembl_id>  (554) 
CHEMBL3623119

>  <canonical_smiles>  (554) 
CCC(=O)N[C@@H]1C[C@]2(C)O[C@]1(C)[C@@H]1C(=O)N(c3ccc(C#N)c(C(F)(F)F)c3)C(=O)[C@@H]12

>  <standard_type>  (554) 
IC50

>  <standard_relation>  (554) 
=

>  <standard_value>  (554) 
23.0

>  <standard_units>  (554) 
nM

>  <target_pref_name>  (554) 
Androgen Receptor

>  <target_chembl_id>  (554) 
CHEMBL1871

>  <target_organism>  (554) 
Homo sapiens

>  <pchembl_median>  (554) 
7.54

$$$$
CHEMBL3623120
     RDKit          2D

 32 35  0  0  0  0  0  0  0  0999 V2000
    3.5260   -3.8971    0.0000 C   0  0  0  0  0  0  0  0  0  0  0  0
    4.2760   -2.5981    0.0000 N   0  0  0  0  0  0  0  0  0  0  0  0
    3.5260   -1.2990    0.0000 S   0  0  0  0  0  0  0  0  0  0  0  0
    2.2269   -2.0490    0.0000 O   0  0  0  0  0  0  0  0  0  0  0  0
    4.8250   -0.5490    0.0000 O   0  0  0  0  0  0  0  0  0  0  0  0
    2.7760    0.0000    0.0000 N   0  0  0  0  0  0  0  0  0  0  0  0
    1.2760    0.0000    0.0000 C   0  0  0  0  0  0  0  0  0  0  0  0
    0.3943    1.2135    0.0000 C   0  0  0  0  0  0  0  0  0  0  0  0
   -1.0323    0.7500    0.0000 C   0  0  0  0  0  0  0  0  0  0  0  0
   -2.2458    1.6317    0.0000 C   0  0  0  0  0  0  0  0  0  0  0  0
   -1.0323   -0.7500    0.0000 O   0  0  0  0  0  0  0  0  0  0  0  0
    0.3943   -1.2135    0.0000 C   0  0  0  0  0  0  0  0  0  0  0  0
    0.8578   -2.6401    0.0000 C   0  0  0  0  0  0  0  0  0  0  0  0
   -1.0323   -1.6771    0.0000 C   0  0  0  0  0  0  0  0  0  0  0  0
   -1.9140   -2.8906    0.0000 C   0  0  0  0  0  0  0  0  0  0  0  0
   -1.4504   -4.3172    0.0000 O   0  0  0  0  0  0  0  0  0  0  0  0
   -3.3405   -2.4271    0.0000 N   0  0  0  0  0  0  0  0  0  0  0  0
   -4.5541   -3.3087    0.0000 C   0  0  0  0  0  0  0  0  0  0  0  0
   -5.9244   -2.6986    0.0000 C   0  0  0  0  0  0  0  0  0  0  0  0
   -7.1379   -3.5803    0.0000 C   0  0  0  0  0  0  0  0  0  0  0  0
   -6.9811   -5.0721    0.0000 C   0  0  0  0  0  0  0  0  0  0  0  0
   -8.1947   -5.9538    0.0000 C   0  0  0  0  0  0  0  0  0  0  0  0
   -9.4082   -6.8354    0.0000 N   0  0  0  0  0  0  0  0  0  0  0  0
   -5.6108   -5.6822    0.0000 C   0  0  0  0  0  0  0  0  0  0  0  0
   -5.4540   -7.1740    0.0000 C   0  0  0  0  0  0  0  0  0  0  0  0
   -5.2972   -8.6658    0.0000 F   0  0  0  0  0  0  0  0  0  0  0  0
   -3.9622   -7.0172    0.0000 F   0  0  0  0  0  0  0  0  0  0  0  0
   -6.9458   -7.3308    0.0000 F   0  0  0  0  0  0  0  0  0  0  0  0
   -4.3973   -4.8005    0.0000 C   0  0  0  0  0  0  0  0  0  0  0  0
   -3.3405   -0.9271    0.0000 C   0  0  0  0  0  0  0  0  0  0  0  0
   -4.5541   -0.0454    0.0000 O   0  0  0  0  0  0  0  0  0  0  0  0
   -1.9140   -0.4635    0.0000 C   0  0  0  0  0  0  0  0  0  0  0  0
  1  2  1  0
  2  3  1  0
  3  4  2  0
  3  5  2  0
  3  6  1  0
  7  6  1  1
  7  8  1  0
  8  9  1  0
  9 10  1  1
  9 11  1  0
 11 12  1  0
 12 13  1  6
 12 14  1  0
 14 15  1  6
 15 16  2  0
 15 17  1  0
 17 18  1  0
 18 19  2  0
 19 20  1  0
 20 21  2  0
 21 22  1  0
 22 23  3  0
 21 24  1  0
 24 25  1  0
 25 26  1  0
 25 27  1  0
 25 28  1  0
 24 29  2  0
 17 30  1  0
 30 31  2  0
 32 30  1  6
 12  7  1  0
 32 14  1  0
 32  9  1  0
 29 18  1  0
M  END
>  <assay_chembl_id>  (555) 
CHEMBL3624234

>  <assay_description>  (555) 
Antagonist activity at androgen receptor in human MDA-MB-453 cells assessed as inhibition of DHT-induced PSA expression by alkaline phosphatase reporter gene assay

>  <parent_molecule_chembl_id>  (555) 
CHEMBL3623120

>  <canonical_smiles>  (555) 
CNS(=O)(=O)N[C@@H]1C[C@]2(C)O[C@]1(C)[C@@H]1C(=O)N(c3ccc(C#N)c(C(F)(F)F)c3)C(=O)[C@@H]12

>  <standard_type>  (555) 
IC50

>  <standard_relation>  (555) 
=

>  <standard_value>  (555) 
34.0

>  <standard_units>  (555) 
nM

>  <target_pref_name>  (555) 
Androgen Receptor

>  <target_chembl_id>  (555) 
CHEMBL1871

>  <target_organism>  (555) 
Homo sapiens

>  <pchembl_median>  (555) 
5.83

$$$$
CHEMBL3623121
     RDKit          2D

 33 36  0  0  0  0  0  0  0  0999 V2000
    7.2760   -2.5981    0.0000 C   0  0  0  0  0  0  0  0  0  0  0  0
    5.7760   -2.5981    0.0000 C   0  0  0  0  0  0  0  0  0  0  0  0
    5.0260   -3.8971    0.0000 C   0  0  0  0  0  0  0  0  0  0  0  0
    5.0260   -1.2990    0.0000 N   0  0  0  0  0  0  0  0  0  0  0  0
    3.5260   -1.2990    0.0000 C   0  0  0  0  0  0  0  0  0  0  0  0
    2.7760   -2.5981    0.0000 O   0  0  0  0  0  0  0  0  0  0  0  0
    2.7760    0.0000    0.0000 N   0  0  0  0  0  0  0  0  0  0  0  0
    1.2760    0.0000    0.0000 C   0  0  0  0  0  0  0  0  0  0  0  0
    0.3943    1.2135    0.0000 C   0  0  0  0  0  0  0  0  0  0  0  0
   -1.0323    0.7500    0.0000 C   0  0  0  0  0  0  0  0  0  0  0  0
   -2.2458    1.6317    0.0000 C   0  0  0  0  0  0  0  0  0  0  0  0
   -1.0323   -0.7500    0.0000 O   0  0  0  0  0  0  0  0  0  0  0  0
    0.3943   -1.2135    0.0000 C   0  0  0  0  0  0  0  0  0  0  0  0
    0.8578   -2.6401    0.0000 C   0  0  0  0  0  0  0  0  0  0  0  0
   -1.0323   -1.6771    0.0000 C   0  0  0  0  0  0  0  0  0  0  0  0
   -1.9140   -2.8906    0.0000 C   0  0  0  0  0  0  0  0  0  0  0  0
   -1.4504   -4.3172    0.0000 O   0  0  0  0  0  0  0  0  0  0  0  0
   -3.3405   -2.4271    0.0000 N   0  0  0  0  0  0  0  0  0  0  0  0
   -4.5541   -3.3087    0.0000 C   0  0  0  0  0  0  0  0  0  0  0  0
   -5.9244   -2.6986    0.0000 C   0  0  0  0  0  0  0  0  0  0  0  0
   -7.1379   -3.5803    0.0000 C   0  0  0  0  0  0  0  0  0  0  0  0
   -6.9811   -5.0721    0.0000 C   0  0  0  0  0  0  0  0  0  0  0  0
   -8.1947   -5.9538    0.0000 C   0  0  0  0  0  0  0  0  0  0  0  0
   -9.4082   -6.8354    0.0000 N   0  0  0  0  0  0  0  0  0  0  0  0
   -5.6108   -5.6822    0.0000 C   0  0  0  0  0  0  0  0  0  0  0  0
   -5.4540   -7.1740    0.0000 C   0  0  0  0  0  0  0  0  0  0  0  0
   -5.2972   -8.6658    0.0000 F   0  0  0  0  0  0  0  0  0  0  0  0
   -3.9622   -7.0172    0.0000 F   0  0  0  0  0  0  0  0  0  0  0  0
   -6.9458   -7.3308    0.0000 F   0  0  0  0  0  0  0  0  0  0  0  0
   -4.3973   -4.8005    0.0000 C   0  0  0  0  0  0  0  0  0  0  0  0
   -3.3405   -0.9271    0.0000 C   0  0  0  0  0  0  0  0  0  0  0  0
   -4.5541   -0.0454    0.0000 O   0  0  0  0  0  0  0  0  0  0  0  0
   -1.9140   -0.4635    0.0000 C   0  0  0  0  0  0  0  0  0  0  0  0
  1  2  1  0
  2  3  1  0
  2  4  1  0
  4  5  1  0
  5  6  2  0
  5  7  1  0
  8  7  1  1
  8  9  1  0
  9 10  1  0
 10 11  1  1
 10 12  1  0
 12 13  1  0
 13 14  1  6
 13 15  1  0
 15 16  1  6
 16 17  2  0
 16 18  1  0
 18 19  1  0
 19 20  2  0
 20 21  1  0
 21 22  2  0
 22 23  1  0
 23 24  3  0
 22 25  1  0
 25 26  1  0
 26 27  1  0
 26 28  1  0
 26 29  1  0
 25 30  2  0
 18 31  1  0
 31 32  2  0
 33 31  1  6
 13  8  1  0
 33 15  1  0
 33 10  1  0
 30 19  1  0
M  END
>  <assay_chembl_id>  (556) 
CHEMBL3624234

>  <assay_description>  (556) 
Antagonist activity at androgen receptor in human MDA-MB-453 cells assessed as inhibition of DHT-induced PSA expression by alkaline phosphatase reporter gene assay

>  <parent_molecule_chembl_id>  (556) 
CHEMBL3623121

>  <canonical_smiles>  (556) 
CC(C)NC(=O)N[C@@H]1C[C@]2(C)O[C@]1(C)[C@@H]1C(=O)N(c3ccc(C#N)c(C(F)(F)F)c3)C(=O)[C@@H]12

>  <standard_type>  (556) 
IC50

>  <standard_relation>  (556) 
=

>  <standard_value>  (556) 
60.0

>  <standard_units>  (556) 
nM

>  <target_pref_name>  (556) 
Androgen Receptor

>  <target_chembl_id>  (556) 
CHEMBL1871

>  <target_organism>  (556) 
Homo sapiens

>  <pchembl_median>  (556) 
7.85

$$$$
CHEMBL3623122
     RDKit          2D

 37 41  0  0  0  0  0  0  0  0999 V2000
    9.1976    3.0847    0.0000 C   0  0  0  0  0  0  0  0  0  0  0  0
    7.7304    2.7729    0.0000 N   0  0  0  0  0  0  0  0  0  0  0  0
    7.2669    1.3463    0.0000 C   0  0  0  0  0  0  0  0  0  0  0  0
    5.7997    1.0344    0.0000 C   0  0  0  0  0  0  0  0  0  0  0  0
    4.7960    2.1491    0.0000 N   0  0  0  0  0  0  0  0  0  0  0  0
    3.3287    1.8373    0.0000 O   0  0  0  0  0  0  0  0  0  0  0  0
    2.3250    2.9520    0.0000 C   0  0  0  0  0  0  0  0  0  0  0  0
    2.7886    4.3786    0.0000 O   0  0  0  0  0  0  0  0  0  0  0  0
    0.8578    2.6401    0.0000 N   0  0  0  0  0  0  0  0  0  0  0  0
    0.3943    1.2135    0.0000 C   0  0  0  0  0  0  0  0  0  0  0  0
    1.2760    0.0000    0.0000 C   0  0  0  0  0  0  0  0  0  0  0  0
    0.3943   -1.2135    0.0000 C   0  0  0  0  0  0  0  0  0  0  0  0
    0.8578   -2.6401    0.0000 C   0  0  0  0  0  0  0  0  0  0  0  0
   -1.0323   -0.7500    0.0000 O   0  0  0  0  0  0  0  0  0  0  0  0
   -1.0323    0.7500    0.0000 C   0  0  0  0  0  0  0  0  0  0  0  0
   -2.2458    1.6317    0.0000 C   0  0  0  0  0  0  0  0  0  0  0  0
   -1.9140   -0.4635    0.0000 C   0  0  0  0  0  0  0  0  0  0  0  0
   -3.3405   -0.9271    0.0000 C   0  0  0  0  0  0  0  0  0  0  0  0
   -4.5541   -0.0454    0.0000 O   0  0  0  0  0  0  0  0  0  0  0  0
   -3.3405   -2.4271    0.0000 N   0  0  0  0  0  0  0  0  0  0  0  0
   -4.5541   -3.3087    0.0000 C   0  0  0  0  0  0  0  0  0  0  0  0
   -5.9244   -2.6986    0.0000 C   0  0  0  0  0  0  0  0  0  0  0  0
   -7.1379   -3.5803    0.0000 C   0  0  0  0  0  0  0  0  0  0  0  0
   -6.9811   -5.0721    0.0000 C   0  0  0  0  0  0  0  0  0  0  0  0
   -8.1947   -5.9538    0.0000 C   0  0  0  0  0  0  0  0  0  0  0  0
   -9.4082   -6.8354    0.0000 N   0  0  0  0  0  0  0  0  0  0  0  0
   -5.6108   -5.6822    0.0000 C   0  0  0  0  0  0  0  0  0  0  0  0
   -5.4540   -7.1740    0.0000 C   0  0  0  0  0  0  0  0  0  0  0  0
   -5.2972   -8.6658    0.0000 F   0  0  0  0  0  0  0  0  0  0  0  0
   -3.9622   -7.0172    0.0000 F   0  0  0  0  0  0  0  0  0  0  0  0
   -6.9458   -7.3308    0.0000 F   0  0  0  0  0  0  0  0  0  0  0  0
   -4.3973   -4.8005    0.0000 C   0  0  0  0  0  0  0  0  0  0  0  0
   -1.9140   -2.8906    0.0000 C   0  0  0  0  0  0  0  0  0  0  0  0
   -1.4504   -4.3172    0.0000 O   0  0  0  0  0  0  0  0  0  0  0  0
   -1.0323   -1.6771    0.0000 C   0  0  0  0  0  0  0  0  0  0  0  0
    5.2595    3.5757    0.0000 C   0  0  0  0  0  0  0  0  0  0  0  0
    6.7267    3.8876    0.0000 C   0  0  0  0  0  0  0  0  0  0  0  0
  1  2  1  0
  2  3  1  0
  3  4  1  0
  4  5  1  0
  5  6  1  0
  6  7  1  0
  7  8  2  0
  7  9  1  0
 10  9  1  6
 10 11  1  0
 11 12  1  0
 12 13  1  6
 12 14  1  0
 14 15  1  0
 15 16  1  1
 15 17  1  0
 17 18  1  1
 18 19  2  0
 18 20  1  0
 20 21  1  0
 21 22  2  0
 22 23  1  0
 23 24  2  0
 24 25  1  0
 25 26  3  0
 24 27  1  0
 27 28  1  0
 28 29  1  0
 28 30  1  0
 28 31  1  0
 27 32  2  0
 20 33  1  0
 33 34  2  0
 35 33  1  1
  5 36  1  0
 36 37  1  0
 37  2  1  0
 15 10  1  0
 35 17  1  0
 35 12  1  0
 32 21  1  0
M  END
>  <assay_chembl_id>  (557) 
CHEMBL3624234

>  <assay_description>  (557) 
Antagonist activity at androgen receptor in human MDA-MB-453 cells assessed as inhibition of DHT-induced PSA expression by alkaline phosphatase reporter gene assay

>  <parent_molecule_chembl_id>  (557) 
CHEMBL3623122

>  <canonical_smiles>  (557) 
CN1CCN(OC(=O)N[C@@H]2C[C@]3(C)O[C@]2(C)[C@@H]2C(=O)N(c4ccc(C#N)c(C(F)(F)F)c4)C(=O)[C@@H]23)CC1

>  <standard_type>  (557) 
IC50

>  <standard_relation>  (557) 
=

>  <standard_value>  (557) 
6.0

>  <standard_units>  (557) 
nM

>  <target_pref_name>  (557) 
Androgen Receptor

>  <target_chembl_id>  (557) 
CHEMBL1871

>  <target_organism>  (557) 
Homo sapiens

>  <pchembl_median>  (557) 
6.71

$$$$
CHEMBL3623123
     RDKit          2D

 31 34  0  0  0  0  0  0  0  0999 V2000
    0.8578    2.6401    0.0000 C   0  0  0  0  0  0  0  0  0  0  0  0
    0.3943    1.2135    0.0000 C   0  0  0  0  0  0  0  0  0  0  0  0
    1.2760    0.0000    0.0000 C   0  0  0  0  0  0  0  0  0  0  0  0
    0.3943   -1.2135    0.0000 C   0  0  0  0  0  0  0  0  0  0  0  0
    0.8578   -2.6401    0.0000 N   0  0  0  0  0  0  0  0  0  0  0  0
   -0.1459   -3.7548    0.0000 S   0  0  0  0  0  0  0  0  0  0  0  0
   -1.1496   -4.8695    0.0000 C   0  0  0  0  0  0  0  0  0  0  0  0
   -1.2606   -2.7511    0.0000 O   0  0  0  0  0  0  0  0  0  0  0  0
    0.9688   -4.7585    0.0000 O   0  0  0  0  0  0  0  0  0  0  0  0
   -1.0323   -0.7500    0.0000 C   0  0  0  0  0  0  0  0  0  0  0  0
   -2.2458   -1.6317    0.0000 C   0  0  0  0  0  0  0  0  0  0  0  0
   -1.0323    0.7500    0.0000 O   0  0  0  0  0  0  0  0  0  0  0  0
   -1.9140    0.4635    0.0000 C   0  0  0  0  0  0  0  0  0  0  0  0
   -3.3405    0.9271    0.0000 C   0  0  0  0  0  0  0  0  0  0  0  0
   -4.5541    0.0454    0.0000 O   0  0  0  0  0  0  0  0  0  0  0  0
   -3.3405    2.4271    0.0000 N   0  0  0  0  0  0  0  0  0  0  0  0
   -4.5541    3.3087    0.0000 C   0  0  0  0  0  0  0  0  0  0  0  0
   -4.3973    4.8005    0.0000 C   0  0  0  0  0  0  0  0  0  0  0  0
   -5.6108    5.6822    0.0000 C   0  0  0  0  0  0  0  0  0  0  0  0
   -6.9811    5.0721    0.0000 C   0  0  0  0  0  0  0  0  0  0  0  0
   -8.1947    5.9538    0.0000 C   0  0  0  0  0  0  0  0  0  0  0  0
   -9.4082    6.8354    0.0000 N   0  0  0  0  0  0  0  0  0  0  0  0
   -7.1379    3.5803    0.0000 C   0  0  0  0  0  0  0  0  0  0  0  0
   -8.5082    2.9702    0.0000 C   0  0  0  0  0  0  0  0  0  0  0  0
   -9.8786    2.3601    0.0000 F   0  0  0  0  0  0  0  0  0  0  0  0
   -7.8981    1.5999    0.0000 F   0  0  0  0  0  0  0  0  0  0  0  0
   -9.1183    4.3405    0.0000 F   0  0  0  0  0  0  0  0  0  0  0  0
   -5.9244    2.6986    0.0000 C   0  0  0  0  0  0  0  0  0  0  0  0
   -1.9140    2.8906    0.0000 C   0  0  0  0  0  0  0  0  0  0  0  0
   -1.4504    4.3172    0.0000 O   0  0  0  0  0  0  0  0  0  0  0  0
   -1.0323    1.6771    0.0000 C   0  0  0  0  0  0  0  0  0  0  0  0
  2  1  1  1
  2  3  1  0
  3  4  1  0
  4  5  1  1
  5  6  1  0
  6  7  1  0
  6  8  2  0
  6  9  2  0
  4 10  1  0
 10 11  1  6
 10 12  1  0
 10 13  1  0
 13 14  1  6
 14 15  2  0
 14 16  1  0
 16 17  1  0
 17 18  2  0
 18 19  1  0
 19 20  2  0
 20 21  1  0
 21 22  3  0
 20 23  1  0
 23 24  1  0
 24 25  1  0
 24 26  1  0
 24 27  1  0
 23 28  2  0
 16 29  1  0
 29 30  2  0
 31 29  1  6
 12  2  1  0
 31 13  1  0
 31  2  1  0
 28 17  1  0
M  END
>  <assay_chembl_id>  (558) 
CHEMBL3624234

>  <assay_description>  (558) 
Antagonist activity at androgen receptor in human MDA-MB-453 cells assessed as inhibition of DHT-induced PSA expression by alkaline phosphatase reporter gene assay

>  <parent_molecule_chembl_id>  (558) 
CHEMBL3623123

>  <canonical_smiles>  (558) 
C[C@@]12C[C@@H](NS(C)(=O)=O)[C@](C)(O1)[C@@H]1C(=O)N(c3ccc(C#N)c(C(F)(F)F)c3)C(=O)[C@@H]12

>  <standard_type>  (558) 
IC50

>  <standard_relation>  (558) 
=

>  <standard_value>  (558) 
20.0

>  <standard_units>  (558) 
nM

>  <target_pref_name>  (558) 
Androgen Receptor

>  <target_chembl_id>  (558) 
CHEMBL1871

>  <target_organism>  (558) 
Homo sapiens

>  <pchembl_median>  (558) 
4.88

$$$$
CHEMBL3623124
     RDKit          2D

 36 40  0  0  0  0  0  0  0  0999 V2000
    0.8578    2.6401    0.0000 C   0  0  0  0  0  0  0  0  0  0  0  0
    0.3943    1.2135    0.0000 C   0  0  0  0  0  0  0  0  0  0  0  0
    1.2760    0.0000    0.0000 C   0  0  0  0  0  0  0  0  0  0  0  0
    0.3943   -1.2135    0.0000 C   0  0  0  0  0  0  0  0  0  0  0  0
    0.8578   -2.6401    0.0000 N   0  0  0  0  0  0  0  0  0  0  0  0
   -0.1459   -3.7548    0.0000 S   0  0  0  0  0  0  0  0  0  0  0  0
   -1.2606   -2.7511    0.0000 O   0  0  0  0  0  0  0  0  0  0  0  0
    0.9688   -4.7585    0.0000 O   0  0  0  0  0  0  0  0  0  0  0  0
   -1.1496   -4.8695    0.0000 C   0  0  0  0  0  0  0  0  0  0  0  0
   -2.6168   -4.5577    0.0000 C   0  0  0  0  0  0  0  0  0  0  0  0
   -3.6205   -5.6724    0.0000 C   0  0  0  0  0  0  0  0  0  0  0  0
   -3.1570   -7.0990    0.0000 C   0  0  0  0  0  0  0  0  0  0  0  0
   -1.6897   -7.4108    0.0000 C   0  0  0  0  0  0  0  0  0  0  0  0
   -0.6860   -6.2961    0.0000 C   0  0  0  0  0  0  0  0  0  0  0  0
   -1.0323   -0.7500    0.0000 C   0  0  0  0  0  0  0  0  0  0  0  0
   -2.2458   -1.6317    0.0000 C   0  0  0  0  0  0  0  0  0  0  0  0
   -1.0323    0.7500    0.0000 O   0  0  0  0  0  0  0  0  0  0  0  0
   -1.9140    0.4635    0.0000 C   0  0  0  0  0  0  0  0  0  0  0  0
   -3.3405    0.9271    0.0000 C   0  0  0  0  0  0  0  0  0  0  0  0
   -4.5541    0.0454    0.0000 O   0  0  0  0  0  0  0  0  0  0  0  0
   -3.3405    2.4271    0.0000 N   0  0  0  0  0  0  0  0  0  0  0  0
   -4.5541    3.3087    0.0000 C   0  0  0  0  0  0  0  0  0  0  0  0
   -4.3973    4.8005    0.0000 C   0  0  0  0  0  0  0  0  0  0  0  0
   -5.6108    5.6822    0.0000 C   0  0  0  0  0  0  0  0  0  0  0  0
   -6.9811    5.0721    0.0000 C   0  0  0  0  0  0  0  0  0  0  0  0
   -8.1947    5.9538    0.0000 C   0  0  0  0  0  0  0  0  0  0  0  0
   -9.4082    6.8354    0.0000 N   0  0  0  0  0  0  0  0  0  0  0  0
   -7.1379    3.5803    0.0000 C   0  0  0  0  0  0  0  0  0  0  0  0
   -8.5082    2.9702    0.0000 C   0  0  0  0  0  0  0  0  0  0  0  0
   -9.8786    2.3601    0.0000 F   0  0  0  0  0  0  0  0  0  0  0  0
   -7.8981    1.5999    0.0000 F   0  0  0  0  0  0  0  0  0  0  0  0
   -9.1183    4.3405    0.0000 F   0  0  0  0  0  0  0  0  0  0  0  0
   -5.9244    2.6986    0.0000 C   0  0  0  0  0  0  0  0  0  0  0  0
   -1.9140    2.8906    0.0000 C   0  0  0  0  0  0  0  0  0  0  0  0
   -1.4504    4.3172    0.0000 O   0  0  0  0  0  0  0  0  0  0  0  0
   -1.0323    1.6771    0.0000 C   0  0  0  0  0  0  0  0  0  0  0  0
  2  1  1  1
  2  3  1  0
  3  4  1  0
  4  5  1  1
  5  6  1  0
  6  7  2  0
  6  8  2  0
  6  9  1  0
  9 10  2  0
 10 11  1  0
 11 12  2  0
 12 13  1  0
 13 14  2  0
  4 15  1  0
 15 16  1  6
 15 17  1  0
 15 18  1  0
 18 19  1  6
 19 20  2  0
 19 21  1  0
 21 22  1  0
 22 23  2  0
 23 24  1  0
 24 25  2  0
 25 26  1  0
 26 27  3  0
 25 28  1  0
 28 29  1  0
 29 30  1  0
 29 31  1  0
 29 32  1  0
 28 33  2  0
 21 34  1  0
 34 35  2  0
 36 34  1  6
 17  2  1  0
 36 18  1  0
 36  2  1  0
 14  9  1  0
 33 22  1  0
M  END
>  <assay_chembl_id>  (559) 
CHEMBL3624234

>  <assay_description>  (559) 
Antagonist activity at androgen receptor in human MDA-MB-453 cells assessed as inhibition of DHT-induced PSA expression by alkaline phosphatase reporter gene assay

>  <parent_molecule_chembl_id>  (559) 
CHEMBL3623124

>  <canonical_smiles>  (559) 
C[C@@]12C[C@@H](NS(=O)(=O)c3ccccc3)[C@](C)(O1)[C@@H]1C(=O)N(c3ccc(C#N)c(C(F)(F)F)c3)C(=O)[C@@H]12

>  <standard_type>  (559) 
IC50

>  <standard_relation>  (559) 
=

>  <standard_value>  (559) 
1.0

>  <standard_units>  (559) 
nM

>  <target_pref_name>  (559) 
Androgen Receptor

>  <target_chembl_id>  (559) 
CHEMBL1871

>  <target_organism>  (559) 
Homo sapiens

>  <pchembl_median>  (559) 
8.43

$$$$
CHEMBL3623125
     RDKit          2D

 37 41  0  0  0  0  0  0  0  0999 V2000
    0.8578    2.6401    0.0000 C   0  0  0  0  0  0  0  0  0  0  0  0
    0.3943    1.2135    0.0000 C   0  0  0  0  0  0  0  0  0  0  0  0
    1.2760    0.0000    0.0000 C   0  0  0  0  0  0  0  0  0  0  0  0
    0.3943   -1.2135    0.0000 C   0  0  0  0  0  0  0  0  0  0  0  0
    0.8578   -2.6401    0.0000 N   0  0  0  0  0  0  0  0  0  0  0  0
   -0.1459   -3.7548    0.0000 S   0  0  0  0  0  0  0  0  0  0  0  0
   -1.2606   -2.7511    0.0000 O   0  0  0  0  0  0  0  0  0  0  0  0
    0.9688   -4.7585    0.0000 O   0  0  0  0  0  0  0  0  0  0  0  0
   -1.1496   -4.8695    0.0000 C   0  0  0  0  0  0  0  0  0  0  0  0
   -2.6168   -4.5577    0.0000 C   0  0  0  0  0  0  0  0  0  0  0  0
   -3.6205   -5.6724    0.0000 C   0  0  0  0  0  0  0  0  0  0  0  0
   -3.1570   -7.0990    0.0000 C   0  0  0  0  0  0  0  0  0  0  0  0
   -1.6897   -7.4108    0.0000 C   0  0  0  0  0  0  0  0  0  0  0  0
   -0.6860   -6.2961    0.0000 C   0  0  0  0  0  0  0  0  0  0  0  0
    0.7812   -6.6080    0.0000 F   0  0  0  0  0  0  0  0  0  0  0  0
   -1.0323   -0.7500    0.0000 C   0  0  0  0  0  0  0  0  0  0  0  0
   -2.2458   -1.6317    0.0000 C   0  0  0  0  0  0  0  0  0  0  0  0
   -1.0323    0.7500    0.0000 O   0  0  0  0  0  0  0  0  0  0  0  0
   -1.9140    0.4635    0.0000 C   0  0  0  0  0  0  0  0  0  0  0  0
   -3.3405    0.9271    0.0000 C   0  0  0  0  0  0  0  0  0  0  0  0
   -4.5541    0.0454    0.0000 O   0  0  0  0  0  0  0  0  0  0  0  0
   -3.3405    2.4271    0.0000 N   0  0  0  0  0  0  0  0  0  0  0  0
   -4.5541    3.3087    0.0000 C   0  0  0  0  0  0  0  0  0  0  0  0
   -4.3973    4.8005    0.0000 C   0  0  0  0  0  0  0  0  0  0  0  0
   -5.6108    5.6822    0.0000 C   0  0  0  0  0  0  0  0  0  0  0  0
   -6.9811    5.0721    0.0000 C   0  0  0  0  0  0  0  0  0  0  0  0
   -8.1947    5.9538    0.0000 C   0  0  0  0  0  0  0  0  0  0  0  0
   -9.4082    6.8354    0.0000 N   0  0  0  0  0  0  0  0  0  0  0  0
   -7.1379    3.5803    0.0000 C   0  0  0  0  0  0  0  0  0  0  0  0
   -8.5082    2.9702    0.0000 C   0  0  0  0  0  0  0  0  0  0  0  0
   -9.8786    2.3601    0.0000 F   0  0  0  0  0  0  0  0  0  0  0  0
   -7.8981    1.5999    0.0000 F   0  0  0  0  0  0  0  0  0  0  0  0
   -9.1183    4.3405    0.0000 F   0  0  0  0  0  0  0  0  0  0  0  0
   -5.9244    2.6986    0.0000 C   0  0  0  0  0  0  0  0  0  0  0  0
   -1.9140    2.8906    0.0000 C   0  0  0  0  0  0  0  0  0  0  0  0
   -1.4504    4.3172    0.0000 O   0  0  0  0  0  0  0  0  0  0  0  0
   -1.0323    1.6771    0.0000 C   0  0  0  0  0  0  0  0  0  0  0  0
  2  1  1  1
  2  3  1  0
  3  4  1  0
  4  5  1  1
  5  6  1  0
  6  7  2  0
  6  8  2  0
  6  9  1  0
  9 10  2  0
 10 11  1  0
 11 12  2  0
 12 13  1  0
 13 14  2  0
 14 15  1  0
  4 16  1  0
 16 17  1  6
 16 18  1  0
 16 19  1  0
 19 20  1  6
 20 21  2  0
 20 22  1  0
 22 23  1  0
 23 24  2  0
 24 25  1  0
 25 26  2  0
 26 27  1  0
 27 28  3  0
 26 29  1  0
 29 30  1  0
 30 31  1  0
 30 32  1  0
 30 33  1  0
 29 34  2  0
 22 35  1  0
 35 36  2  0
 37 35  1  6
 18  2  1  0
 37 19  1  0
 37  2  1  0
 14  9  1  0
 34 23  1  0
M  END
>  <assay_chembl_id>  (560) 
CHEMBL3624234

>  <assay_description>  (560) 
Antagonist activity at androgen receptor in human MDA-MB-453 cells assessed as inhibition of DHT-induced PSA expression by alkaline phosphatase reporter gene assay

>  <parent_molecule_chembl_id>  (560) 
CHEMBL3623125

>  <canonical_smiles>  (560) 
C[C@@]12C[C@@H](NS(=O)(=O)c3ccccc3F)[C@](C)(O1)[C@@H]1C(=O)N(c3ccc(C#N)c(C(F)(F)F)c3)C(=O)[C@@H]12

>  <standard_type>  (560) 
IC50

>  <standard_relation>  (560) 
=

>  <standard_value>  (560) 
10.0

>  <standard_units>  (560) 
nM

>  <target_pref_name>  (560) 
Androgen Receptor

>  <target_chembl_id>  (560) 
CHEMBL1871

>  <target_organism>  (560) 
Homo sapiens

>  <pchembl_median>  (560) 
5.22

$$$$
CHEMBL3623126
     RDKit          2D

 36 40  0  0  0  0  0  0  0  0999 V2000
    0.8578    2.6401    0.0000 C   0  0  0  0  0  0  0  0  0  0  0  0
    0.3943    1.2135    0.0000 C   0  0  0  0  0  0  0  0  0  0  0  0
    1.2760    0.0000    0.0000 C   0  0  0  0  0  0  0  0  0  0  0  0
    0.3943   -1.2135    0.0000 C   0  0  0  0  0  0  0  0  0  0  0  0
    0.8578   -2.6401    0.0000 N   0  0  0  0  0  0  0  0  0  0  0  0
   -0.1459   -3.7548    0.0000 S   0  0  0  0  0  0  0  0  0  0  0  0
   -1.2606   -2.7511    0.0000 O   0  0  0  0  0  0  0  0  0  0  0  0
    0.9688   -4.7585    0.0000 O   0  0  0  0  0  0  0  0  0  0  0  0
   -1.1496   -4.8695    0.0000 C   0  0  0  0  0  0  0  0  0  0  0  0
   -2.6168   -4.5577    0.0000 C   0  0  0  0  0  0  0  0  0  0  0  0
   -3.6205   -5.6724    0.0000 C   0  0  0  0  0  0  0  0  0  0  0  0
   -3.1570   -7.0990    0.0000 C   0  0  0  0  0  0  0  0  0  0  0  0
   -1.6897   -7.4108    0.0000 N   0  0  0  0  0  0  0  0  0  0  0  0
   -0.6860   -6.2961    0.0000 C   0  0  0  0  0  0  0  0  0  0  0  0
   -1.0323   -0.7500    0.0000 C   0  0  0  0  0  0  0  0  0  0  0  0
   -2.2458   -1.6317    0.0000 C   0  0  0  0  0  0  0  0  0  0  0  0
   -1.0323    0.7500    0.0000 O   0  0  0  0  0  0  0  0  0  0  0  0
   -1.9140    0.4635    0.0000 C   0  0  0  0  0  0  0  0  0  0  0  0
   -3.3405    0.9271    0.0000 C   0  0  0  0  0  0  0  0  0  0  0  0
   -4.5541    0.0454    0.0000 O   0  0  0  0  0  0  0  0  0  0  0  0
   -3.3405    2.4271    0.0000 N   0  0  0  0  0  0  0  0  0  0  0  0
   -4.5541    3.3087    0.0000 C   0  0  0  0  0  0  0  0  0  0  0  0
   -4.3973    4.8005    0.0000 C   0  0  0  0  0  0  0  0  0  0  0  0
   -5.6108    5.6822    0.0000 C   0  0  0  0  0  0  0  0  0  0  0  0
   -6.9811    5.0721    0.0000 C   0  0  0  0  0  0  0  0  0  0  0  0
   -8.1947    5.9538    0.0000 C   0  0  0  0  0  0  0  0  0  0  0  0
   -9.4082    6.8354    0.0000 N   0  0  0  0  0  0  0  0  0  0  0  0
   -7.1379    3.5803    0.0000 C   0  0  0  0  0  0  0  0  0  0  0  0
   -8.5082    2.9702    0.0000 C   0  0  0  0  0  0  0  0  0  0  0  0
   -9.8786    2.3601    0.0000 F   0  0  0  0  0  0  0  0  0  0  0  0
   -7.8981    1.5999    0.0000 F   0  0  0  0  0  0  0  0  0  0  0  0
   -9.1183    4.3405    0.0000 F   0  0  0  0  0  0  0  0  0  0  0  0
   -5.9244    2.6986    0.0000 C   0  0  0  0  0  0  0  0  0  0  0  0
   -1.9140    2.8906    0.0000 C   0  0  0  0  0  0  0  0  0  0  0  0
   -1.4504    4.3172    0.0000 O   0  0  0  0  0  0  0  0  0  0  0  0
   -1.0323    1.6771    0.0000 C   0  0  0  0  0  0  0  0  0  0  0  0
  2  1  1  1
  2  3  1  0
  3  4  1  0
  4  5  1  1
  5  6  1  0
  6  7  2  0
  6  8  2  0
  6  9  1  0
  9 10  2  0
 10 11  1  0
 11 12  2  0
 12 13  1  0
 13 14  2  0
  4 15  1  0
 15 16  1  6
 15 17  1  0
 15 18  1  0
 18 19  1  6
 19 20  2  0
 19 21  1  0
 21 22  1  0
 22 23  2  0
 23 24  1  0
 24 25  2  0
 25 26  1  0
 26 27  3  0
 25 28  1  0
 28 29  1  0
 29 30  1  0
 29 31  1  0
 29 32  1  0
 28 33  2  0
 21 34  1  0
 34 35  2  0
 36 34  1  6
 17  2  1  0
 36 18  1  0
 36  2  1  0
 14  9  1  0
 33 22  1  0
M  END
>  <assay_chembl_id>  (561) 
CHEMBL3624234

>  <assay_description>  (561) 
Antagonist activity at androgen receptor in human MDA-MB-453 cells assessed as inhibition of DHT-induced PSA expression by alkaline phosphatase reporter gene assay

>  <parent_molecule_chembl_id>  (561) 
CHEMBL3623126

>  <canonical_smiles>  (561) 
C[C@@]12C[C@@H](NS(=O)(=O)c3cccnc3)[C@](C)(O1)[C@@H]1C(=O)N(c3ccc(C#N)c(C(F)(F)F)c3)C(=O)[C@@H]12

>  <standard_type>  (561) 
IC50

>  <standard_relation>  (561) 
=

>  <standard_value>  (561) 
7.0

>  <standard_units>  (561) 
nM

>  <target_pref_name>  (561) 
Androgen Receptor

>  <target_chembl_id>  (561) 
CHEMBL1871

>  <target_organism>  (561) 
Homo sapiens

>  <pchembl_median>  (561) 
5.18

$$$$
CHEMBL3623127
     RDKit          2D

 32 35  0  0  0  0  0  0  0  0999 V2000
    3.5260   -3.8971    0.0000 C   0  0  0  0  0  0  0  0  0  0  0  0
    4.2760   -2.5981    0.0000 C   0  0  0  0  0  0  0  0  0  0  0  0
    3.5260   -1.2990    0.0000 S   0  0  0  0  0  0  0  0  0  0  0  0
    2.2269   -2.0490    0.0000 O   0  0  0  0  0  0  0  0  0  0  0  0
    4.8250   -0.5490    0.0000 O   0  0  0  0  0  0  0  0  0  0  0  0
    2.7760    0.0000    0.0000 N   0  0  0  0  0  0  0  0  0  0  0  0
    1.2760    0.0000    0.0000 C   0  0  0  0  0  0  0  0  0  0  0  0
    0.3943    1.2135    0.0000 C   0  0  0  0  0  0  0  0  0  0  0  0
   -1.0323    0.7500    0.0000 C   0  0  0  0  0  0  0  0  0  0  0  0
   -2.2458    1.6317    0.0000 C   0  0  0  0  0  0  0  0  0  0  0  0
   -1.0323   -0.7500    0.0000 O   0  0  0  0  0  0  0  0  0  0  0  0
    0.3943   -1.2135    0.0000 C   0  0  0  0  0  0  0  0  0  0  0  0
    0.8578   -2.6401    0.0000 C   0  0  0  0  0  0  0  0  0  0  0  0
   -1.0323   -1.6771    0.0000 C   0  0  0  0  0  0  0  0  0  0  0  0
   -1.9140   -2.8906    0.0000 C   0  0  0  0  0  0  0  0  0  0  0  0
   -1.4504   -4.3172    0.0000 O   0  0  0  0  0  0  0  0  0  0  0  0
   -3.3405   -2.4271    0.0000 N   0  0  0  0  0  0  0  0  0  0  0  0
   -4.5541   -3.3087    0.0000 C   0  0  0  0  0  0  0  0  0  0  0  0
   -5.9244   -2.6986    0.0000 C   0  0  0  0  0  0  0  0  0  0  0  0
   -7.1379   -3.5803    0.0000 C   0  0  0  0  0  0  0  0  0  0  0  0
   -6.9811   -5.0721    0.0000 C   0  0  0  0  0  0  0  0  0  0  0  0
   -8.1947   -5.9538    0.0000 C   0  0  0  0  0  0  0  0  0  0  0  0
   -9.4082   -6.8354    0.0000 N   0  0  0  0  0  0  0  0  0  0  0  0
   -5.6108   -5.6822    0.0000 C   0  0  0  0  0  0  0  0  0  0  0  0
   -5.4540   -7.1740    0.0000 C   0  0  0  0  0  0  0  0  0  0  0  0
   -5.2972   -8.6658    0.0000 F   0  0  0  0  0  0  0  0  0  0  0  0
   -3.9622   -7.0172    0.0000 F   0  0  0  0  0  0  0  0  0  0  0  0
   -6.9458   -7.3308    0.0000 F   0  0  0  0  0  0  0  0  0  0  0  0
   -4.3973   -4.8005    0.0000 C   0  0  0  0  0  0  0  0  0  0  0  0
   -3.3405   -0.9271    0.0000 C   0  0  0  0  0  0  0  0  0  0  0  0
   -4.5541   -0.0454    0.0000 O   0  0  0  0  0  0  0  0  0  0  0  0
   -1.9140   -0.4635    0.0000 C   0  0  0  0  0  0  0  0  0  0  0  0
  1  2  1  0
  2  3  1  0
  3  4  2  0
  3  5  2  0
  3  6  1  0
  7  6  1  1
  7  8  1  0
  8  9  1  0
  9 10  1  1
  9 11  1  0
 11 12  1  0
 12 13  1  6
 12 14  1  0
 14 15  1  6
 15 16  2  0
 15 17  1  0
 17 18  1  0
 18 19  2  0
 19 20  1  0
 20 21  2  0
 21 22  1  0
 22 23  3  0
 21 24  1  0
 24 25  1  0
 25 26  1  0
 25 27  1  0
 25 28  1  0
 24 29  2  0
 17 30  1  0
 30 31  2  0
 32 30  1  6
 12  7  1  0
 32 14  1  0
 32  9  1  0
 29 18  1  0
M  END
>  <assay_chembl_id>  (562) 
CHEMBL3624234

>  <assay_description>  (562) 
Antagonist activity at androgen receptor in human MDA-MB-453 cells assessed as inhibition of DHT-induced PSA expression by alkaline phosphatase reporter gene assay

>  <parent_molecule_chembl_id>  (562) 
CHEMBL3623127

>  <canonical_smiles>  (562) 
CCS(=O)(=O)N[C@@H]1C[C@]2(C)O[C@]1(C)[C@@H]1C(=O)N(c3ccc(C#N)c(C(F)(F)F)c3)C(=O)[C@@H]12

>  <standard_type>  (562) 
IC50

>  <standard_relation>  (562) 
=

>  <standard_value>  (562) 
16.0

>  <standard_units>  (562) 
nM

>  <target_pref_name>  (562) 
Androgen Receptor

>  <target_chembl_id>  (562) 
CHEMBL1871

>  <target_organism>  (562) 
Homo sapiens

>  <pchembl_median>  (562) 
4.55

$$$$
CHEMBL66761
     RDKit          2D

 18 20  0  0  0  0  0  0  0  0999 V2000
   -3.0000   -2.5981    0.0000 O   0  0  0  0  0  0  0  0  0  0  0  0
   -1.5000   -2.5981    0.0000 C   0  0  0  0  0  0  0  0  0  0  0  0
   -0.7500   -3.8971    0.0000 N   0  0  0  0  0  0  0  0  0  0  0  0
    0.7500   -3.8971    0.0000 N   0  0  0  0  0  0  0  0  0  0  0  0
    1.5000   -2.5981    0.0000 C   0  0  0  0  0  0  0  0  0  0  0  0
    3.0000   -2.5981    0.0000 C   0  0  0  0  0  0  0  0  0  0  0  0
    3.7500   -3.8971    0.0000 C   0  0  0  0  0  0  0  0  0  0  0  0
    3.0000   -5.1962    0.0000 C   0  0  0  0  0  0  0  0  0  0  0  0
    3.7500   -6.4952    0.0000 C   0  0  0  0  0  0  0  0  0  0  0  0
    5.2500   -6.4952    0.0000 C   0  0  0  0  0  0  0  0  0  0  0  0
    6.0000   -5.1962    0.0000 C   0  0  0  0  0  0  0  0  0  0  0  0
    5.2500   -3.8971    0.0000 C   0  0  0  0  0  0  0  0  0  0  0  0
    0.7500   -1.2990    0.0000 C   0  0  0  0  0  0  0  0  0  0  0  0
    1.5000    0.0000    0.0000 C   0  0  0  0  0  0  0  0  0  0  0  0
    0.7500    1.2990    0.0000 C   0  0  0  0  0  0  0  0  0  0  0  0
   -0.7500    1.2990    0.0000 C   0  0  0  0  0  0  0  0  0  0  0  0
   -1.5000    0.0000    0.0000 C   0  0  0  0  0  0  0  0  0  0  0  0
   -0.7500   -1.2990    0.0000 C   0  0  0  0  0  0  0  0  0  0  0  0
  1  2  2  0
  2  3  1  0
  3  4  1  0
  4  5  2  0
  5  6  1  0
  6  7  1  0
  7  8  2  0
  8  9  1  0
  9 10  2  0
 10 11  1  0
 11 12  2  0
  5 13  1  0
 13 14  2  0
 14 15  1  0
 15 16  2  0
 16 17  1  0
 17 18  2  0
 18  2  1  0
 12  7  1  0
 18 13  1  0
M  END
>  <assay_chembl_id>  (563) 
CHEMBL3626368

>  <assay_description>  (563) 
Antagonist activity at wild type AR expressed in human SC cells assessed as inhibition of 1 nM DHT-induced cell proliferation after 3 days by WST-8 assay

>  <parent_molecule_chembl_id>  (563) 
CHEMBL66761

>  <canonical_smiles>  (563) 
O=c1[nH]nc(Cc2ccccc2)c2ccccc12

>  <standard_type>  (563) 
IC50

>  <standard_relation>  (563) 
=

>  <standard_value>  (563) 
5370.0

>  <standard_units>  (563) 
nM

>  <target_pref_name>  (563) 
Androgen Receptor

>  <target_chembl_id>  (563) 
CHEMBL1871

>  <target_organism>  (563) 
Homo sapiens

>  <pchembl_median>  (563) 
6.5

$$$$
CHEMBL3622573
     RDKit          2D

 19 21  0  0  0  0  0  0  0  0999 V2000
   -1.5000   -5.1962    0.0000 C   0  0  0  0  0  0  0  0  0  0  0  0
   -3.0000   -5.1962    0.0000 C   0  0  0  0  0  0  0  0  0  0  0  0
   -3.7500   -6.4952    0.0000 C   0  0  0  0  0  0  0  0  0  0  0  0
   -5.2500   -6.4952    0.0000 C   0  0  0  0  0  0  0  0  0  0  0  0
   -6.0000   -5.1962    0.0000 C   0  0  0  0  0  0  0  0  0  0  0  0
   -5.2500   -3.8971    0.0000 C   0  0  0  0  0  0  0  0  0  0  0  0
   -3.7500   -3.8971    0.0000 C   0  0  0  0  0  0  0  0  0  0  0  0
   -3.0000   -2.5981    0.0000 C   0  0  0  0  0  0  0  0  0  0  0  0
   -1.5000   -2.5981    0.0000 C   0  0  0  0  0  0  0  0  0  0  0  0
   -0.7500   -3.8971    0.0000 N   0  0  0  0  0  0  0  0  0  0  0  0
    0.7500   -3.8971    0.0000 N   0  0  0  0  0  0  0  0  0  0  0  0
    1.5000   -2.5981    0.0000 C   0  0  0  0  0  0  0  0  0  0  0  0
    3.0000   -2.5981    0.0000 O   0  0  0  0  0  0  0  0  0  0  0  0
    0.7500   -1.2990    0.0000 C   0  0  0  0  0  0  0  0  0  0  0  0
    1.5000    0.0000    0.0000 C   0  0  0  0  0  0  0  0  0  0  0  0
    0.7500    1.2990    0.0000 C   0  0  0  0  0  0  0  0  0  0  0  0
   -0.7500    1.2990    0.0000 C   0  0  0  0  0  0  0  0  0  0  0  0
   -1.5000    0.0000    0.0000 C   0  0  0  0  0  0  0  0  0  0  0  0
   -0.7500   -1.2990    0.0000 C   0  0  0  0  0  0  0  0  0  0  0  0
  1  2  1  0
  2  3  2  0
  3  4  1  0
  4  5  2  0
  5  6  1  0
  6  7  2  0
  7  8  1  0
  8  9  1  0
  9 10  2  0
 10 11  1  0
 11 12  1  0
 12 13  2  0
 12 14  1  0
 14 15  2  0
 15 16  1  0
 16 17  2  0
 17 18  1  0
 18 19  2  0
  7  2  1  0
 19  9  1  0
 19 14  1  0
M  END
>  <assay_chembl_id>  (564) 
CHEMBL3626368

>  <assay_description>  (564) 
Antagonist activity at wild type AR expressed in human SC cells assessed as inhibition of 1 nM DHT-induced cell proliferation after 3 days by WST-8 assay

>  <parent_molecule_chembl_id>  (564) 
CHEMBL3622573

>  <canonical_smiles>  (564) 
Cc1ccccc1Cc1n[nH]c(=O)c2ccccc12

>  <standard_type>  (564) 
IC50

>  <standard_relation>  (564) 
=

>  <standard_value>  (564) 
9540.0

>  <standard_units>  (564) 
nM

>  <target_pref_name>  (564) 
Androgen Receptor

>  <target_chembl_id>  (564) 
CHEMBL1871

>  <target_organism>  (564) 
Homo sapiens

>  <pchembl_median>  (564) 
7.82

$$$$
CHEMBL3622574
     RDKit          2D

 20 22  0  0  0  0  0  0  0  0999 V2000
   -0.7500   -6.4952    0.0000 C   0  0  0  0  0  0  0  0  0  0  0  0
   -1.5000   -5.1962    0.0000 O   0  0  0  0  0  0  0  0  0  0  0  0
   -3.0000   -5.1962    0.0000 C   0  0  0  0  0  0  0  0  0  0  0  0
   -3.7500   -6.4952    0.0000 C   0  0  0  0  0  0  0  0  0  0  0  0
   -5.2500   -6.4952    0.0000 C   0  0  0  0  0  0  0  0  0  0  0  0
   -6.0000   -5.1962    0.0000 C   0  0  0  0  0  0  0  0  0  0  0  0
   -5.2500   -3.8971    0.0000 C   0  0  0  0  0  0  0  0  0  0  0  0
   -3.7500   -3.8971    0.0000 C   0  0  0  0  0  0  0  0  0  0  0  0
   -3.0000   -2.5981    0.0000 C   0  0  0  0  0  0  0  0  0  0  0  0
   -1.5000   -2.5981    0.0000 C   0  0  0  0  0  0  0  0  0  0  0  0
   -0.7500   -3.8971    0.0000 N   0  0  0  0  0  0  0  0  0  0  0  0
    0.7500   -3.8971    0.0000 N   0  0  0  0  0  0  0  0  0  0  0  0
    1.5000   -2.5981    0.0000 C   0  0  0  0  0  0  0  0  0  0  0  0
    3.0000   -2.5981    0.0000 O   0  0  0  0  0  0  0  0  0  0  0  0
    0.7500   -1.2990    0.0000 C   0  0  0  0  0  0  0  0  0  0  0  0
    1.5000    0.0000    0.0000 C   0  0  0  0  0  0  0  0  0  0  0  0
    0.7500    1.2990    0.0000 C   0  0  0  0  0  0  0  0  0  0  0  0
   -0.7500    1.2990    0.0000 C   0  0  0  0  0  0  0  0  0  0  0  0
   -1.5000    0.0000    0.0000 C   0  0  0  0  0  0  0  0  0  0  0  0
   -0.7500   -1.2990    0.0000 C   0  0  0  0  0  0  0  0  0  0  0  0
  1  2  1  0
  2  3  1  0
  3  4  2  0
  4  5  1  0
  5  6  2  0
  6  7  1  0
  7  8  2  0
  8  9  1  0
  9 10  1  0
 10 11  2  0
 11 12  1  0
 12 13  1  0
 13 14  2  0
 13 15  1  0
 15 16  2  0
 16 17  1  0
 17 18  2  0
 18 19  1  0
 19 20  2  0
  8  3  1  0
 20 10  1  0
 20 15  1  0
M  END
>  <assay_chembl_id>  (565) 
CHEMBL3626368

>  <assay_description>  (565) 
Antagonist activity at wild type AR expressed in human SC cells assessed as inhibition of 1 nM DHT-induced cell proliferation after 3 days by WST-8 assay

>  <parent_molecule_chembl_id>  (565) 
CHEMBL3622574

>  <canonical_smiles>  (565) 
COc1ccccc1Cc1n[nH]c(=O)c2ccccc12

>  <standard_type>  (565) 
IC50

>  <standard_relation>  (565) 
=

>  <standard_value>  (565) 
9590.0

>  <standard_units>  (565) 
nM

>  <target_pref_name>  (565) 
Androgen Receptor

>  <target_chembl_id>  (565) 
CHEMBL1871

>  <target_organism>  (565) 
Homo sapiens

>  <pchembl_median>  (565) 
8.2

$$$$
CHEMBL3622575
     RDKit          2D

 19 21  0  0  0  0  0  0  0  0999 V2000
   -3.0000   -2.5981    0.0000 O   0  0  0  0  0  0  0  0  0  0  0  0
   -1.5000   -2.5981    0.0000 C   0  0  0  0  0  0  0  0  0  0  0  0
   -0.7500   -3.8971    0.0000 N   0  0  0  0  0  0  0  0  0  0  0  0
    0.7500   -3.8971    0.0000 N   0  0  0  0  0  0  0  0  0  0  0  0
    1.5000   -2.5981    0.0000 C   0  0  0  0  0  0  0  0  0  0  0  0
    3.0000   -2.5981    0.0000 C   0  0  0  0  0  0  0  0  0  0  0  0
    3.7500   -3.8971    0.0000 C   0  0  0  0  0  0  0  0  0  0  0  0
    3.0000   -5.1962    0.0000 C   0  0  0  0  0  0  0  0  0  0  0  0
    3.7500   -6.4952    0.0000 C   0  0  0  0  0  0  0  0  0  0  0  0
    5.2500   -6.4952    0.0000 C   0  0  0  0  0  0  0  0  0  0  0  0
    6.0000   -5.1962    0.0000 C   0  0  0  0  0  0  0  0  0  0  0  0
    5.2500   -3.8971    0.0000 C   0  0  0  0  0  0  0  0  0  0  0  0
    6.0000   -2.5981    0.0000 F   0  0  0  0  0  0  0  0  0  0  0  0
    0.7500   -1.2990    0.0000 C   0  0  0  0  0  0  0  0  0  0  0  0
    1.5000    0.0000    0.0000 C   0  0  0  0  0  0  0  0  0  0  0  0
    0.7500    1.2990    0.0000 C   0  0  0  0  0  0  0  0  0  0  0  0
   -0.7500    1.2990    0.0000 C   0  0  0  0  0  0  0  0  0  0  0  0
   -1.5000    0.0000    0.0000 C   0  0  0  0  0  0  0  0  0  0  0  0
   -0.7500   -1.2990    0.0000 C   0  0  0  0  0  0  0  0  0  0  0  0
  1  2  2  0
  2  3  1  0
  3  4  1  0
  4  5  2  0
  5  6  1  0
  6  7  1  0
  7  8  2  0
  8  9  1  0
  9 10  2  0
 10 11  1  0
 11 12  2  0
 12 13  1  0
  5 14  1  0
 14 15  2  0
 15 16  1  0
 16 17  2  0
 17 18  1  0
 18 19  2  0
 19  2  1  0
 12  7  1  0
 19 14  1  0
M  END
>  <assay_chembl_id>  (566) 
CHEMBL3626368

>  <assay_description>  (566) 
Antagonist activity at wild type AR expressed in human SC cells assessed as inhibition of 1 nM DHT-induced cell proliferation after 3 days by WST-8 assay

>  <parent_molecule_chembl_id>  (566) 
CHEMBL3622575

>  <canonical_smiles>  (566) 
O=c1[nH]nc(Cc2ccccc2F)c2ccccc12

>  <standard_type>  (566) 
IC50

>  <standard_relation>  (566) 
=

>  <standard_value>  (566) 
10500.0

>  <standard_units>  (566) 
nM

>  <target_pref_name>  (566) 
Androgen Receptor

>  <target_chembl_id>  (566) 
CHEMBL1871

>  <target_organism>  (566) 
Homo sapiens

>  <pchembl_median>  (566) 
6.48

$$$$
CHEMBL3622576
     RDKit          2D

 22 24  0  0  0  0  0  0  0  0999 V2000
   -3.0000   -2.5981    0.0000 O   0  0  0  0  0  0  0  0  0  0  0  0
   -1.5000   -2.5981    0.0000 C   0  0  0  0  0  0  0  0  0  0  0  0
   -0.7500   -3.8971    0.0000 N   0  0  0  0  0  0  0  0  0  0  0  0
    0.7500   -3.8971    0.0000 N   0  0  0  0  0  0  0  0  0  0  0  0
    1.5000   -2.5981    0.0000 C   0  0  0  0  0  0  0  0  0  0  0  0
    3.0000   -2.5981    0.0000 C   0  0  0  0  0  0  0  0  0  0  0  0
    3.7500   -3.8971    0.0000 C   0  0  0  0  0  0  0  0  0  0  0  0
    3.0000   -5.1962    0.0000 C   0  0  0  0  0  0  0  0  0  0  0  0
    3.7500   -6.4952    0.0000 C   0  0  0  0  0  0  0  0  0  0  0  0
    5.2500   -6.4952    0.0000 C   0  0  0  0  0  0  0  0  0  0  0  0
    6.0000   -5.1962    0.0000 C   0  0  0  0  0  0  0  0  0  0  0  0
    5.2500   -3.8971    0.0000 C   0  0  0  0  0  0  0  0  0  0  0  0
    6.0000   -2.5981    0.0000 C   0  0  0  0  0  0  0  0  0  0  0  0
    6.7500   -1.2990    0.0000 F   0  0  0  0  0  0  0  0  0  0  0  0
    7.2990   -3.3481    0.0000 F   0  0  0  0  0  0  0  0  0  0  0  0
    4.7010   -1.8481    0.0000 F   0  0  0  0  0  0  0  0  0  0  0  0
    0.7500   -1.2990    0.0000 C   0  0  0  0  0  0  0  0  0  0  0  0
    1.5000    0.0000    0.0000 C   0  0  0  0  0  0  0  0  0  0  0  0
    0.7500    1.2990    0.0000 C   0  0  0  0  0  0  0  0  0  0  0  0
   -0.7500    1.2990    0.0000 C   0  0  0  0  0  0  0  0  0  0  0  0
   -1.5000    0.0000    0.0000 C   0  0  0  0  0  0  0  0  0  0  0  0
   -0.7500   -1.2990    0.0000 C   0  0  0  0  0  0  0  0  0  0  0  0
  1  2  2  0
  2  3  1  0
  3  4  1  0
  4  5  2  0
  5  6  1  0
  6  7  1  0
  7  8  2  0
  8  9  1  0
  9 10  2  0
 10 11  1  0
 11 12  2  0
 12 13  1  0
 13 14  1  0
 13 15  1  0
 13 16  1  0
  5 17  1  0
 17 18  2  0
 18 19  1  0
 19 20  2  0
 20 21  1  0
 21 22  2  0
 22  2  1  0
 12  7  1  0
 22 17  1  0
M  END
>  <assay_chembl_id>  (567) 
CHEMBL3626368

>  <assay_description>  (567) 
Antagonist activity at wild type AR expressed in human SC cells assessed as inhibition of 1 nM DHT-induced cell proliferation after 3 days by WST-8 assay

>  <parent_molecule_chembl_id>  (567) 
CHEMBL3622576

>  <canonical_smiles>  (567) 
O=c1[nH]nc(Cc2ccccc2C(F)(F)F)c2ccccc12

>  <standard_type>  (567) 
IC50

>  <standard_relation>  (567) 
=

>  <standard_value>  (567) 
3670.0

>  <standard_units>  (567) 
nM

>  <target_pref_name>  (567) 
Androgen Receptor

>  <target_chembl_id>  (567) 
CHEMBL1871

>  <target_organism>  (567) 
Homo sapiens

>  <pchembl_median>  (567) 
8.05

$$$$
CHEMBL3622578
     RDKit          2D

 21 23  0  0  0  0  0  0  0  0999 V2000
   -3.0000   -2.5981    0.0000 O   0  0  0  0  0  0  0  0  0  0  0  0
   -1.5000   -2.5981    0.0000 C   0  0  0  0  0  0  0  0  0  0  0  0
   -0.7500   -3.8971    0.0000 N   0  0  0  0  0  0  0  0  0  0  0  0
    0.7500   -3.8971    0.0000 N   0  0  0  0  0  0  0  0  0  0  0  0
    1.5000   -2.5981    0.0000 C   0  0  0  0  0  0  0  0  0  0  0  0
    3.0000   -2.5981    0.0000 C   0  0  0  0  0  0  0  0  0  0  0  0
    3.7500   -3.8971    0.0000 C   0  0  0  0  0  0  0  0  0  0  0  0
    3.0000   -5.1962    0.0000 C   0  0  0  0  0  0  0  0  0  0  0  0
    3.7500   -6.4952    0.0000 C   0  0  0  0  0  0  0  0  0  0  0  0
    5.2500   -6.4952    0.0000 C   0  0  0  0  0  0  0  0  0  0  0  0
    6.0000   -5.1962    0.0000 C   0  0  0  0  0  0  0  0  0  0  0  0
    5.2500   -3.8971    0.0000 C   0  0  0  0  0  0  0  0  0  0  0  0
    6.0000   -2.5981    0.0000 N   0  0  0  0  0  4  0  0  0  0  0  0
    5.2500   -1.2990    0.0000 O   0  0  0  0  0  0  0  0  0  0  0  0
    7.5000   -2.5981    0.0000 O   0  0  0  0  0  1  0  0  0  0  0  0
    0.7500   -1.2990    0.0000 C   0  0  0  0  0  0  0  0  0  0  0  0
    1.5000    0.0000    0.0000 C   0  0  0  0  0  0  0  0  0  0  0  0
    0.7500    1.2990    0.0000 C   0  0  0  0  0  0  0  0  0  0  0  0
   -0.7500    1.2990    0.0000 C   0  0  0  0  0  0  0  0  0  0  0  0
   -1.5000    0.0000    0.0000 C   0  0  0  0  0  0  0  0  0  0  0  0
   -0.7500   -1.2990    0.0000 C   0  0  0  0  0  0  0  0  0  0  0  0
  1  2  2  0
  2  3  1  0
  3  4  1  0
  4  5  2  0
  5  6  1  0
  6  7  1  0
  7  8  2  0
  8  9  1  0
  9 10  2  0
 10 11  1  0
 11 12  2  0
 12 13  1  0
 13 14  2  0
 13 15  1  0
  5 16  1  0
 16 17  2  0
 17 18  1  0
 18 19  2  0
 19 20  1  0
 20 21  2  0
 21  2  1  0
 12  7  1  0
 21 16  1  0
M  CHG  2  13   1  15  -1
M  END
>  <assay_chembl_id>  (568) 
CHEMBL3626368

>  <assay_description>  (568) 
Antagonist activity at wild type AR expressed in human SC cells assessed as inhibition of 1 nM DHT-induced cell proliferation after 3 days by WST-8 assay

>  <parent_molecule_chembl_id>  (568) 
CHEMBL3622578

>  <canonical_smiles>  (568) 
O=c1[nH]nc(Cc2ccccc2[N+](=O)[O-])c2ccccc12

>  <standard_type>  (568) 
IC50

>  <standard_relation>  (568) 
=

>  <standard_value>  (568) 
530.0

>  <standard_units>  (568) 
nM

>  <target_pref_name>  (568) 
Androgen Receptor

>  <target_chembl_id>  (568) 
CHEMBL1871

>  <target_organism>  (568) 
Homo sapiens

>  <pchembl_median>  (568) 
8.85

$$$$
CHEMBL3622581
     RDKit          2D

 25 27  0  0  0  0  0  0  0  0999 V2000
   -1.5000   -7.7942    0.0000 O   0  0  0  0  0  0  0  0  0  0  0  0
   -0.7500   -6.4952    0.0000 C   0  0  0  0  0  0  0  0  0  0  0  0
   -1.5000   -5.1962    0.0000 N   0  0  0  0  0  0  0  0  0  0  0  0
   -3.0000   -5.1962    0.0000 C   0  0  0  0  0  0  0  0  0  0  0  0
   -3.7500   -6.4952    0.0000 C   0  0  0  0  0  0  0  0  0  0  0  0
   -5.2500   -6.4952    0.0000 C   0  0  0  0  0  0  0  0  0  0  0  0
   -6.0000   -5.1962    0.0000 C   0  0  0  0  0  0  0  0  0  0  0  0
   -5.2500   -3.8971    0.0000 C   0  0  0  0  0  0  0  0  0  0  0  0
   -3.7500   -3.8971    0.0000 C   0  0  0  0  0  0  0  0  0  0  0  0
   -3.0000   -2.5981    0.0000 C   0  0  0  0  0  0  0  0  0  0  0  0
   -1.5000   -2.5981    0.0000 C   0  0  0  0  0  0  0  0  0  0  0  0
   -0.7500   -3.8971    0.0000 N   0  0  0  0  0  0  0  0  0  0  0  0
    0.7500   -3.8971    0.0000 N   0  0  0  0  0  0  0  0  0  0  0  0
    1.5000   -2.5981    0.0000 C   0  0  0  0  0  0  0  0  0  0  0  0
    3.0000   -2.5981    0.0000 O   0  0  0  0  0  0  0  0  0  0  0  0
    0.7500   -1.2990    0.0000 C   0  0  0  0  0  0  0  0  0  0  0  0
    1.5000    0.0000    0.0000 C   0  0  0  0  0  0  0  0  0  0  0  0
    0.7500    1.2990    0.0000 C   0  0  0  0  0  0  0  0  0  0  0  0
   -0.7500    1.2990    0.0000 C   0  0  0  0  0  0  0  0  0  0  0  0
   -1.5000    0.0000    0.0000 C   0  0  0  0  0  0  0  0  0  0  0  0
   -0.7500   -1.2990    0.0000 C   0  0  0  0  0  0  0  0  0  0  0  0
    0.7500   -6.4952    0.0000 C   0  0  0  0  0  0  0  0  0  0  0  0
    2.2500   -6.4952    0.0000 F   0  0  0  0  0  0  0  0  0  0  0  0
    0.7500   -7.9952    0.0000 F   0  0  0  0  0  0  0  0  0  0  0  0
    0.7500   -4.9952    0.0000 F   0  0  0  0  0  0  0  0  0  0  0  0
  1  2  2  0
  2  3  1  0
  3  4  1  0
  4  5  2  0
  5  6  1  0
  6  7  2  0
  7  8  1  0
  8  9  2  0
  9 10  1  0
 10 11  1  0
 11 12  2  0
 12 13  1  0
 13 14  1  0
 14 15  2  0
 14 16  1  0
 16 17  2  0
 17 18  1  0
 18 19  2  0
 19 20  1  0
 20 21  2  0
  2 22  1  0
 22 23  1  0
 22 24  1  0
 22 25  1  0
  9  4  1  0
 21 11  1  0
 21 16  1  0
M  END
>  <assay_chembl_id>  (569) 
CHEMBL3626368

>  <assay_description>  (569) 
Antagonist activity at wild type AR expressed in human SC cells assessed as inhibition of 1 nM DHT-induced cell proliferation after 3 days by WST-8 assay

>  <parent_molecule_chembl_id>  (569) 
CHEMBL3622581

>  <canonical_smiles>  (569) 
O=C(Nc1ccccc1Cc1n[nH]c(=O)c2ccccc12)C(F)(F)F

>  <standard_type>  (569) 
IC50

>  <standard_relation>  (569) 
=

>  <standard_value>  (569) 
1010.0

>  <standard_units>  (569) 
nM

>  <target_pref_name>  (569) 
Androgen Receptor

>  <target_chembl_id>  (569) 
CHEMBL1871

>  <target_organism>  (569) 
Homo sapiens

>  <pchembl_median>  (569) 
5.22

$$$$
CHEMBL3622583
     RDKit          2D

 23 25  0  0  0  0  0  0  0  0999 V2000
   -8.2500   -1.2990    0.0000 C   0  0  0  0  0  0  0  0  0  0  0  0
   -7.5000   -2.5981    0.0000 C   0  0  0  0  0  0  0  0  0  0  0  0
   -6.0000   -2.5981    0.0000 N   0  0  0  0  0  0  0  0  0  0  0  0
   -5.2500   -1.2990    0.0000 C   0  0  0  0  0  0  0  0  0  0  0  0
   -6.0000    0.0000    0.0000 C   0  0  0  0  0  0  0  0  0  0  0  0
   -5.2500   -3.8971    0.0000 C   0  0  0  0  0  0  0  0  0  0  0  0
   -6.0000   -5.1962    0.0000 C   0  0  0  0  0  0  0  0  0  0  0  0
   -5.2500   -6.4952    0.0000 C   0  0  0  0  0  0  0  0  0  0  0  0
   -3.7500   -6.4952    0.0000 C   0  0  0  0  0  0  0  0  0  0  0  0
   -3.0000   -5.1962    0.0000 C   0  0  0  0  0  0  0  0  0  0  0  0
   -3.7500   -3.8971    0.0000 C   0  0  0  0  0  0  0  0  0  0  0  0
   -3.0000   -2.5981    0.0000 C   0  0  0  0  0  0  0  0  0  0  0  0
   -1.5000   -2.5981    0.0000 C   0  0  0  0  0  0  0  0  0  0  0  0
   -0.7500   -3.8971    0.0000 N   0  0  0  0  0  0  0  0  0  0  0  0
    0.7500   -3.8971    0.0000 N   0  0  0  0  0  0  0  0  0  0  0  0
    1.5000   -2.5981    0.0000 C   0  0  0  0  0  0  0  0  0  0  0  0
    3.0000   -2.5981    0.0000 O   0  0  0  0  0  0  0  0  0  0  0  0
    0.7500   -1.2990    0.0000 C   0  0  0  0  0  0  0  0  0  0  0  0
    1.5000    0.0000    0.0000 C   0  0  0  0  0  0  0  0  0  0  0  0
    0.7500    1.2990    0.0000 C   0  0  0  0  0  0  0  0  0  0  0  0
   -0.7500    1.2990    0.0000 C   0  0  0  0  0  0  0  0  0  0  0  0
   -1.5000    0.0000    0.0000 C   0  0  0  0  0  0  0  0  0  0  0  0
   -0.7500   -1.2990    0.0000 C   0  0  0  0  0  0  0  0  0  0  0  0
  1  2  1  0
  2  3  1  0
  3  4  1  0
  4  5  1  0
  3  6  1  0
  6  7  2  0
  7  8  1  0
  8  9  2  0
  9 10  1  0
 10 11  2  0
 11 12  1  0
 12 13  1  0
 13 14  2  0
 14 15  1  0
 15 16  1  0
 16 17  2  0
 16 18  1  0
 18 19  2  0
 19 20  1  0
 20 21  2  0
 21 22  1  0
 22 23  2  0
 11  6  1  0
 23 13  1  0
 23 18  1  0
M  END
>  <assay_chembl_id>  (570) 
CHEMBL3626368

>  <assay_description>  (570) 
Antagonist activity at wild type AR expressed in human SC cells assessed as inhibition of 1 nM DHT-induced cell proliferation after 3 days by WST-8 assay

>  <parent_molecule_chembl_id>  (570) 
CHEMBL3622583

>  <canonical_smiles>  (570) 
CCN(CC)c1ccccc1Cc1n[nH]c(=O)c2ccccc12

>  <standard_type>  (570) 
IC50

>  <standard_relation>  (570) 
=

>  <standard_value>  (570) 
1660.0

>  <standard_units>  (570) 
nM

>  <target_pref_name>  (570) 
Androgen Receptor

>  <target_chembl_id>  (570) 
CHEMBL1871

>  <target_organism>  (570) 
Homo sapiens

>  <pchembl_median>  (570) 
7.96

$$$$
CHEMBL3622584
     RDKit          2D

 21 23  0  0  0  0  0  0  0  0999 V2000
    0.7500   -6.4952    0.0000 C   0  0  0  0  0  0  0  0  0  0  0  0
   -0.7500   -6.4952    0.0000 C   0  0  0  0  0  0  0  0  0  0  0  0
   -1.5000   -5.1962    0.0000 N   0  0  0  0  0  0  0  0  0  0  0  0
   -3.0000   -5.1962    0.0000 C   0  0  0  0  0  0  0  0  0  0  0  0
   -3.7500   -6.4952    0.0000 C   0  0  0  0  0  0  0  0  0  0  0  0
   -5.2500   -6.4952    0.0000 C   0  0  0  0  0  0  0  0  0  0  0  0
   -6.0000   -5.1962    0.0000 C   0  0  0  0  0  0  0  0  0  0  0  0
   -5.2500   -3.8971    0.0000 C   0  0  0  0  0  0  0  0  0  0  0  0
   -3.7500   -3.8971    0.0000 C   0  0  0  0  0  0  0  0  0  0  0  0
   -3.0000   -2.5981    0.0000 C   0  0  0  0  0  0  0  0  0  0  0  0
   -1.5000   -2.5981    0.0000 C   0  0  0  0  0  0  0  0  0  0  0  0
   -0.7500   -3.8971    0.0000 N   0  0  0  0  0  0  0  0  0  0  0  0
    0.7500   -3.8971    0.0000 N   0  0  0  0  0  0  0  0  0  0  0  0
    1.5000   -2.5981    0.0000 C   0  0  0  0  0  0  0  0  0  0  0  0
    3.0000   -2.5981    0.0000 O   0  0  0  0  0  0  0  0  0  0  0  0
    0.7500   -1.2990    0.0000 C   0  0  0  0  0  0  0  0  0  0  0  0
    1.5000    0.0000    0.0000 C   0  0  0  0  0  0  0  0  0  0  0  0
    0.7500    1.2990    0.0000 C   0  0  0  0  0  0  0  0  0  0  0  0
   -0.7500    1.2990    0.0000 C   0  0  0  0  0  0  0  0  0  0  0  0
   -1.5000    0.0000    0.0000 C   0  0  0  0  0  0  0  0  0  0  0  0
   -0.7500   -1.2990    0.0000 C   0  0  0  0  0  0  0  0  0  0  0  0
  1  2  1  0
  2  3  1  0
  3  4  1  0
  4  5  2  0
  5  6  1  0
  6  7  2  0
  7  8  1  0
  8  9  2  0
  9 10  1  0
 10 11  1  0
 11 12  2  0
 12 13  1  0
 13 14  1  0
 14 15  2  0
 14 16  1  0
 16 17  2  0
 17 18  1  0
 18 19  2  0
 19 20  1  0
 20 21  2  0
  9  4  1  0
 21 11  1  0
 21 16  1  0
M  END
>  <assay_chembl_id>  (571) 
CHEMBL3626368

>  <assay_description>  (571) 
Antagonist activity at wild type AR expressed in human SC cells assessed as inhibition of 1 nM DHT-induced cell proliferation after 3 days by WST-8 assay

>  <parent_molecule_chembl_id>  (571) 
CHEMBL3622584

>  <canonical_smiles>  (571) 
CCNc1ccccc1Cc1n[nH]c(=O)c2ccccc12

>  <standard_type>  (571) 
IC50

>  <standard_relation>  (571) 
=

>  <standard_value>  (571) 
3710.0

>  <standard_units>  (571) 
nM

>  <target_pref_name>  (571) 
Androgen Receptor

>  <target_chembl_id>  (571) 
CHEMBL1871

>  <target_organism>  (571) 
Homo sapiens

>  <pchembl_median>  (571) 
8.44

$$$$
CHEMBL3622585
     RDKit          2D

 21 23  0  0  0  0  0  0  0  0999 V2000
   -7.5000   -2.5981    0.0000 C   0  0  0  0  0  0  0  0  0  0  0  0
   -6.0000   -2.5981    0.0000 N   0  0  0  0  0  0  0  0  0  0  0  0
   -5.2500   -1.2990    0.0000 C   0  0  0  0  0  0  0  0  0  0  0  0
   -5.2500   -3.8971    0.0000 C   0  0  0  0  0  0  0  0  0  0  0  0
   -6.0000   -5.1962    0.0000 C   0  0  0  0  0  0  0  0  0  0  0  0
   -5.2500   -6.4952    0.0000 C   0  0  0  0  0  0  0  0  0  0  0  0
   -3.7500   -6.4952    0.0000 C   0  0  0  0  0  0  0  0  0  0  0  0
   -3.0000   -5.1962    0.0000 C   0  0  0  0  0  0  0  0  0  0  0  0
   -3.7500   -3.8971    0.0000 C   0  0  0  0  0  0  0  0  0  0  0  0
   -3.0000   -2.5981    0.0000 C   0  0  0  0  0  0  0  0  0  0  0  0
   -1.5000   -2.5981    0.0000 C   0  0  0  0  0  0  0  0  0  0  0  0
   -0.7500   -3.8971    0.0000 N   0  0  0  0  0  0  0  0  0  0  0  0
    0.7500   -3.8971    0.0000 N   0  0  0  0  0  0  0  0  0  0  0  0
    1.5000   -2.5981    0.0000 C   0  0  0  0  0  0  0  0  0  0  0  0
    3.0000   -2.5981    0.0000 O   0  0  0  0  0  0  0  0  0  0  0  0
    0.7500   -1.2990    0.0000 C   0  0  0  0  0  0  0  0  0  0  0  0
    1.5000    0.0000    0.0000 C   0  0  0  0  0  0  0  0  0  0  0  0
    0.7500    1.2990    0.0000 C   0  0  0  0  0  0  0  0  0  0  0  0
   -0.7500    1.2990    0.0000 C   0  0  0  0  0  0  0  0  0  0  0  0
   -1.5000    0.0000    0.0000 C   0  0  0  0  0  0  0  0  0  0  0  0
   -0.7500   -1.2990    0.0000 C   0  0  0  0  0  0  0  0  0  0  0  0
  1  2  1  0
  2  3  1  0
  2  4  1  0
  4  5  2  0
  5  6  1  0
  6  7  2  0
  7  8  1  0
  8  9  2  0
  9 10  1  0
 10 11  1  0
 11 12  2  0
 12 13  1  0
 13 14  1  0
 14 15  2  0
 14 16  1  0
 16 17  2  0
 17 18  1  0
 18 19  2  0
 19 20  1  0
 20 21  2  0
  9  4  1  0
 21 11  1  0
 21 16  1  0
M  END
>  <assay_chembl_id>  (572) 
CHEMBL3626368

>  <assay_description>  (572) 
Antagonist activity at wild type AR expressed in human SC cells assessed as inhibition of 1 nM DHT-induced cell proliferation after 3 days by WST-8 assay

>  <parent_molecule_chembl_id>  (572) 
CHEMBL3622585

>  <canonical_smiles>  (572) 
CN(C)c1ccccc1Cc1n[nH]c(=O)c2ccccc12

>  <standard_type>  (572) 
IC50

>  <standard_relation>  (572) 
=

>  <standard_value>  (572) 
1950.0

>  <standard_units>  (572) 
nM

>  <target_pref_name>  (572) 
Androgen Receptor

>  <target_chembl_id>  (572) 
CHEMBL1871

>  <target_organism>  (572) 
Homo sapiens

>  <pchembl_median>  (572) 
6.545

$$$$
CHEMBL3622586
     RDKit          2D

 20 22  0  0  0  0  0  0  0  0999 V2000
   -0.7500   -6.4952    0.0000 C   0  0  0  0  0  0  0  0  0  0  0  0
   -1.5000   -5.1962    0.0000 N   0  0  0  0  0  0  0  0  0  0  0  0
   -3.0000   -5.1962    0.0000 C   0  0  0  0  0  0  0  0  0  0  0  0
   -3.7500   -6.4952    0.0000 C   0  0  0  0  0  0  0  0  0  0  0  0
   -5.2500   -6.4952    0.0000 C   0  0  0  0  0  0  0  0  0  0  0  0
   -6.0000   -5.1962    0.0000 C   0  0  0  0  0  0  0  0  0  0  0  0
   -5.2500   -3.8971    0.0000 C   0  0  0  0  0  0  0  0  0  0  0  0
   -3.7500   -3.8971    0.0000 C   0  0  0  0  0  0  0  0  0  0  0  0
   -3.0000   -2.5981    0.0000 C   0  0  0  0  0  0  0  0  0  0  0  0
   -1.5000   -2.5981    0.0000 C   0  0  0  0  0  0  0  0  0  0  0  0
   -0.7500   -3.8971    0.0000 N   0  0  0  0  0  0  0  0  0  0  0  0
    0.7500   -3.8971    0.0000 N   0  0  0  0  0  0  0  0  0  0  0  0
    1.5000   -2.5981    0.0000 C   0  0  0  0  0  0  0  0  0  0  0  0
    3.0000   -2.5981    0.0000 O   0  0  0  0  0  0  0  0  0  0  0  0
    0.7500   -1.2990    0.0000 C   0  0  0  0  0  0  0  0  0  0  0  0
    1.5000    0.0000    0.0000 C   0  0  0  0  0  0  0  0  0  0  0  0
    0.7500    1.2990    0.0000 C   0  0  0  0  0  0  0  0  0  0  0  0
   -0.7500    1.2990    0.0000 C   0  0  0  0  0  0  0  0  0  0  0  0
   -1.5000    0.0000    0.0000 C   0  0  0  0  0  0  0  0  0  0  0  0
   -0.7500   -1.2990    0.0000 C   0  0  0  0  0  0  0  0  0  0  0  0
  1  2  1  0
  2  3  1  0
  3  4  2  0
  4  5  1  0
  5  6  2  0
  6  7  1  0
  7  8  2  0
  8  9  1  0
  9 10  1  0
 10 11  2  0
 11 12  1  0
 12 13  1  0
 13 14  2  0
 13 15  1  0
 15 16  2  0
 16 17  1  0
 17 18  2  0
 18 19  1  0
 19 20  2  0
  8  3  1  0
 20 10  1  0
 20 15  1  0
M  END
>  <assay_chembl_id>  (573) 
CHEMBL3626368

>  <assay_description>  (573) 
Antagonist activity at wild type AR expressed in human SC cells assessed as inhibition of 1 nM DHT-induced cell proliferation after 3 days by WST-8 assay

>  <parent_molecule_chembl_id>  (573) 
CHEMBL3622586

>  <canonical_smiles>  (573) 
CNc1ccccc1Cc1n[nH]c(=O)c2ccccc12

>  <standard_type>  (573) 
IC50

>  <standard_relation>  (573) 
=

>  <standard_value>  (573) 
9020.0

>  <standard_units>  (573) 
nM

>  <target_pref_name>  (573) 
Androgen Receptor

>  <target_chembl_id>  (573) 
CHEMBL1871

>  <target_organism>  (573) 
Homo sapiens

>  <pchembl_median>  (573) 
9.43

$$$$
CHEMBL3622587
     RDKit          2D

 20 22  0  0  0  0  0  0  0  0999 V2000
   -1.5000   -5.1962    0.0000 C   0  0  0  0  0  0  0  0  0  0  0  0
   -3.0000   -5.1962    0.0000 C   0  0  0  0  0  0  0  0  0  0  0  0
   -3.7500   -6.4952    0.0000 C   0  0  0  0  0  0  0  0  0  0  0  0
   -5.2500   -6.4952    0.0000 C   0  0  0  0  0  0  0  0  0  0  0  0
   -6.0000   -5.1962    0.0000 C   0  0  0  0  0  0  0  0  0  0  0  0
   -5.2500   -3.8971    0.0000 C   0  0  0  0  0  0  0  0  0  0  0  0
   -6.0000   -2.5981    0.0000 C   0  0  0  0  0  0  0  0  0  0  0  0
   -3.7500   -3.8971    0.0000 C   0  0  0  0  0  0  0  0  0  0  0  0
   -3.0000   -2.5981    0.0000 C   0  0  0  0  0  0  0  0  0  0  0  0
   -1.5000   -2.5981    0.0000 C   0  0  0  0  0  0  0  0  0  0  0  0
   -0.7500   -3.8971    0.0000 N   0  0  0  0  0  0  0  0  0  0  0  0
    0.7500   -3.8971    0.0000 N   0  0  0  0  0  0  0  0  0  0  0  0
    1.5000   -2.5981    0.0000 C   0  0  0  0  0  0  0  0  0  0  0  0
    3.0000   -2.5981    0.0000 O   0  0  0  0  0  0  0  0  0  0  0  0
    0.7500   -1.2990    0.0000 C   0  0  0  0  0  0  0  0  0  0  0  0
    1.5000    0.0000    0.0000 C   0  0  0  0  0  0  0  0  0  0  0  0
    0.7500    1.2990    0.0000 C   0  0  0  0  0  0  0  0  0  0  0  0
   -0.7500    1.2990    0.0000 C   0  0  0  0  0  0  0  0  0  0  0  0
   -1.5000    0.0000    0.0000 C   0  0  0  0  0  0  0  0  0  0  0  0
   -0.7500   -1.2990    0.0000 C   0  0  0  0  0  0  0  0  0  0  0  0
  1  2  1  0
  2  3  2  0
  3  4  1  0
  4  5  2  0
  5  6  1  0
  6  7  1  0
  6  8  2  0
  8  9  1  0
  9 10  1  0
 10 11  2  0
 11 12  1  0
 12 13  1  0
 13 14  2  0
 13 15  1  0
 15 16  2  0
 16 17  1  0
 17 18  2  0
 18 19  1  0
 19 20  2  0
  8  2  1  0
 20 10  1  0
 20 15  1  0
M  END
>  <assay_chembl_id>  (574) 
CHEMBL3626368

>  <assay_description>  (574) 
Antagonist activity at wild type AR expressed in human SC cells assessed as inhibition of 1 nM DHT-induced cell proliferation after 3 days by WST-8 assay

>  <parent_molecule_chembl_id>  (574) 
CHEMBL3622587

>  <canonical_smiles>  (574) 
Cc1cccc(C)c1Cc1n[nH]c(=O)c2ccccc12

>  <standard_type>  (574) 
IC50

>  <standard_relation>  (574) 
=

>  <standard_value>  (574) 
1380.0

>  <standard_units>  (574) 
nM

>  <target_pref_name>  (574) 
Androgen Receptor

>  <target_chembl_id>  (574) 
CHEMBL1871

>  <target_organism>  (574) 
Homo sapiens

>  <pchembl_median>  (574) 
4.65

$$$$
CHEMBL3622588
     RDKit          2D

 20 22  0  0  0  0  0  0  0  0999 V2000
   -3.0000   -2.5981    0.0000 O   0  0  0  0  0  0  0  0  0  0  0  0
   -1.5000   -2.5981    0.0000 C   0  0  0  0  0  0  0  0  0  0  0  0
   -0.7500   -3.8971    0.0000 N   0  0  0  0  0  0  0  0  0  0  0  0
    0.7500   -3.8971    0.0000 N   0  0  0  0  0  0  0  0  0  0  0  0
    1.5000   -2.5981    0.0000 C   0  0  0  0  0  0  0  0  0  0  0  0
    3.0000   -2.5981    0.0000 C   0  0  0  0  0  0  0  0  0  0  0  0
    3.7500   -3.8971    0.0000 C   0  0  0  0  0  0  0  0  0  0  0  0
    3.0000   -5.1962    0.0000 C   0  0  0  0  0  0  0  0  0  0  0  0
    1.5000   -5.1962    0.0000 F   0  0  0  0  0  0  0  0  0  0  0  0
    3.7500   -6.4952    0.0000 C   0  0  0  0  0  0  0  0  0  0  0  0
    5.2500   -6.4952    0.0000 C   0  0  0  0  0  0  0  0  0  0  0  0
    6.0000   -5.1962    0.0000 C   0  0  0  0  0  0  0  0  0  0  0  0
    5.2500   -3.8971    0.0000 C   0  0  0  0  0  0  0  0  0  0  0  0
    6.0000   -2.5981    0.0000 F   0  0  0  0  0  0  0  0  0  0  0  0
    0.7500   -1.2990    0.0000 C   0  0  0  0  0  0  0  0  0  0  0  0
    1.5000    0.0000    0.0000 C   0  0  0  0  0  0  0  0  0  0  0  0
    0.7500    1.2990    0.0000 C   0  0  0  0  0  0  0  0  0  0  0  0
   -0.7500    1.2990    0.0000 C   0  0  0  0  0  0  0  0  0  0  0  0
   -1.5000    0.0000    0.0000 C   0  0  0  0  0  0  0  0  0  0  0  0
   -0.7500   -1.2990    0.0000 C   0  0  0  0  0  0  0  0  0  0  0  0
  1  2  2  0
  2  3  1  0
  3  4  1  0
  4  5  2  0
  5  6  1  0
  6  7  1  0
  7  8  2  0
  8  9  1  0
  8 10  1  0
 10 11  2  0
 11 12  1  0
 12 13  2  0
 13 14  1  0
  5 15  1  0
 15 16  2  0
 16 17  1  0
 17 18  2  0
 18 19  1  0
 19 20  2  0
 20  2  1  0
 13  7  1  0
 20 15  1  0
M  END
>  <assay_chembl_id>  (575) 
CHEMBL3626368

>  <assay_description>  (575) 
Antagonist activity at wild type AR expressed in human SC cells assessed as inhibition of 1 nM DHT-induced cell proliferation after 3 days by WST-8 assay

>  <parent_molecule_chembl_id>  (575) 
CHEMBL3622588

>  <canonical_smiles>  (575) 
O=c1[nH]nc(Cc2c(F)cccc2F)c2ccccc12

>  <standard_type>  (575) 
IC50

>  <standard_relation>  (575) 
=

>  <standard_value>  (575) 
3760.0

>  <standard_units>  (575) 
nM

>  <target_pref_name>  (575) 
Androgen Receptor

>  <target_chembl_id>  (575) 
CHEMBL1871

>  <target_organism>  (575) 
Homo sapiens

>  <pchembl_median>  (575) 
4.73

$$$$
CHEMBL3622589
     RDKit          2D

 20 22  0  0  0  0  0  0  0  0999 V2000
   -3.0000   -2.5981    0.0000 O   0  0  0  0  0  0  0  0  0  0  0  0
   -1.5000   -2.5981    0.0000 C   0  0  0  0  0  0  0  0  0  0  0  0
   -0.7500   -3.8971    0.0000 N   0  0  0  0  0  0  0  0  0  0  0  0
    0.7500   -3.8971    0.0000 N   0  0  0  0  0  0  0  0  0  0  0  0
    1.5000   -2.5981    0.0000 C   0  0  0  0  0  0  0  0  0  0  0  0
    3.0000   -2.5981    0.0000 C   0  0  0  0  0  0  0  0  0  0  0  0
    3.7500   -3.8971    0.0000 C   0  0  0  0  0  0  0  0  0  0  0  0
    3.0000   -5.1962    0.0000 C   0  0  0  0  0  0  0  0  0  0  0  0
    1.5000   -5.1962    0.0000 Cl  0  0  0  0  0  0  0  0  0  0  0  0
    3.7500   -6.4952    0.0000 C   0  0  0  0  0  0  0  0  0  0  0  0
    5.2500   -6.4952    0.0000 C   0  0  0  0  0  0  0  0  0  0  0  0
    6.0000   -5.1962    0.0000 C   0  0  0  0  0  0  0  0  0  0  0  0
    5.2500   -3.8971    0.0000 C   0  0  0  0  0  0  0  0  0  0  0  0
    6.0000   -2.5981    0.0000 Cl  0  0  0  0  0  0  0  0  0  0  0  0
    0.7500   -1.2990    0.0000 C   0  0  0  0  0  0  0  0  0  0  0  0
    1.5000    0.0000    0.0000 C   0  0  0  0  0  0  0  0  0  0  0  0
    0.7500    1.2990    0.0000 C   0  0  0  0  0  0  0  0  0  0  0  0
   -0.7500    1.2990    0.0000 C   0  0  0  0  0  0  0  0  0  0  0  0
   -1.5000    0.0000    0.0000 C   0  0  0  0  0  0  0  0  0  0  0  0
   -0.7500   -1.2990    0.0000 C   0  0  0  0  0  0  0  0  0  0  0  0
  1  2  2  0
  2  3  1  0
  3  4  1  0
  4  5  2  0
  5  6  1  0
  6  7  1  0
  7  8  2  0
  8  9  1  0
  8 10  1  0
 10 11  2  0
 11 12  1  0
 12 13  2  0
 13 14  1  0
  5 15  1  0
 15 16  2  0
 16 17  1  0
 17 18  2  0
 18 19  1  0
 19 20  2  0
 20  2  1  0
 13  7  1  0
 20 15  1  0
M  END
>  <assay_chembl_id>  (576) 
CHEMBL3626368

>  <assay_description>  (576) 
Antagonist activity at wild type AR expressed in human SC cells assessed as inhibition of 1 nM DHT-induced cell proliferation after 3 days by WST-8 assay

>  <parent_molecule_chembl_id>  (576) 
CHEMBL3622589

>  <canonical_smiles>  (576) 
O=c1[nH]nc(Cc2c(Cl)cccc2Cl)c2ccccc12

>  <standard_type>  (576) 
IC50

>  <standard_relation>  (576) 
=

>  <standard_value>  (576) 
180.0

>  <standard_units>  (576) 
nM

>  <target_pref_name>  (576) 
Androgen Receptor

>  <target_chembl_id>  (576) 
CHEMBL1871

>  <target_organism>  (576) 
Homo sapiens

>  <pchembl_median>  (576) 
4.86

$$$$
CHEMBL3667040
     RDKit          2D

 26 28  0  0  0  0  0  0  0  0999 V2000
    5.2500    1.2990    0.0000 C   0  0  0  0  0  0  0  0  0  0  0  0
    3.7500    1.2990    0.0000 C   0  0  0  0  0  0  0  0  0  0  0  0
    3.0000    0.0000    0.0000 C   0  0  0  0  0  0  0  0  0  0  0  0
    1.5000    0.0000    0.0000 C   0  0  0  0  0  0  0  0  0  0  0  0
    0.7500   -1.2990    0.0000 C   0  0  0  0  0  0  0  0  0  0  0  0
   -0.7500   -1.2990    0.0000 C   0  0  0  0  0  0  0  0  0  0  0  0
   -1.5000    0.0000    0.0000 C   0  0  0  0  0  0  0  0  0  0  0  0
   -0.7500    1.2990    0.0000 C   0  0  0  0  0  0  0  0  0  0  0  0
    0.7500    1.2990    0.0000 O   0  0  0  0  0  0  0  0  0  0  0  0
   -3.0000    0.0000    0.0000 C   0  0  0  0  0  0  0  0  0  0  0  0
   -3.7500    1.2990    0.0000 O   0  0  0  0  0  0  0  0  0  0  0  0
   -3.7500   -1.2990    0.0000 C   0  0  0  0  0  0  0  0  0  0  0  0
   -4.6317   -0.0855    0.0000 C   0  0  0  0  0  0  0  0  0  0  0  0
   -5.2172   -1.6109    0.0000 O   0  0  0  0  0  0  0  0  0  0  0  0
   -5.3740   -3.1027    0.0000 C   0  0  0  0  0  0  0  0  0  0  0  0
   -6.6731   -3.8527    0.0000 O   0  0  0  0  0  0  0  0  0  0  0  0
   -4.0037   -3.7128    0.0000 C   0  0  0  0  0  0  0  0  0  0  0  0
   -3.6918   -5.1800    0.0000 C   0  0  0  0  0  0  0  0  0  0  0  0
   -2.2652   -5.6435    0.0000 O   0  0  0  0  0  0  0  0  0  0  0  0
   -4.8065   -6.1837    0.0000 C   0  0  0  0  0  0  0  0  0  0  0  0
   -4.4947   -7.6509    0.0000 C   0  0  0  0  0  0  0  0  0  0  0  0
   -5.6094   -8.6546    0.0000 C   0  0  0  0  0  0  0  0  0  0  0  0
   -5.2975  -10.1218    0.0000 C   0  0  0  0  0  0  0  0  0  0  0  0
   -6.4122  -11.1255    0.0000 C   0  0  0  0  0  0  0  0  0  0  0  0
   -3.0000   -2.5981    0.0000 C   0  0  0  0  0  0  0  0  0  0  0  0
   -1.5000   -2.5981    0.0000 C   0  0  0  0  0  0  0  0  0  0  0  0
  1  2  1  0
  2  3  2  0
  3  4  1  0
  4  5  2  0
  5  6  1  0
  6  7  2  0
  7  8  1  0
  8  9  1  0
  7 10  1  0
 10 11  2  0
 10 12  1  0
 12 13  1  6
 12 14  1  0
 14 15  1  0
 15 16  2  0
 15 17  1  0
 17 18  1  1
 18 19  1  0
 18 20  1  0
 20 21  1  0
 21 22  1  0
 22 23  1  0
 23 24  1  0
 17 25  1  0
 25 26  1  0
  9  4  1  0
 25 12  1  0
 26  6  1  0
M  END
>  <assay_chembl_id>  (577) 
CHEMBL3705620

>  <assay_description>  (577) 
Inhibition Assay: To conduct the assays, the 250 uM monasuspiloin solution was further diluted with 10% DMSO to prepare 25 uM, and 5 uM monasuspiloin samples, and the final concentration of DMSO in the cell culture was 1%.The cell line used in glucocorticoid receptor (GR) assay was human A-549 cells (cultured in Ham's F12K medium (Gibco, USA), 10% FBS), the cell line used in progesterone receptor (PR) assay was human T-47D cells (cultured in RPMI 1640 medium (Gibco, USA), 10% FBS), and the cell line used in estrogen receptor (ER) assay was human MCF7 cells (cultured in MEM medium (Gibco, USA), 10% FBS). The cells in the exponential phase of growth were washed off with 1 ml of 0.05% trypsin, centrifuged and collected in a centrifuge tube. 1x107 cells were resuspended in 270 ul BES medium (5 mM BES in medium) and 8 to 10 ug of plasmid [pMMTV-SEAP plasmid was used for GR and PR (see FIG. 7), and pTA-ERE-SEAP plasmid (Clontech, USA) was used for ER (see FIG. 8)] were also added.

>  <parent_molecule_chembl_id>  (577) 
CHEMBL3667040

>  <canonical_smiles>  (577) 
C/C=C/C1=CC2=C(CO1)C(=O)[C@]1(C)OC(=O)[C@H](C(O)CCCCC)C1C2

>  <standard_type>  (577) 
IC50

>  <standard_relation>  (577) 
=

>  <standard_value>  (577) 
12000.0

>  <standard_units>  (577) 
nM

>  <target_pref_name>  (577) 
Androgen Receptor

>  <target_chembl_id>  (577) 
CHEMBL1871

>  <target_organism>  (577) 
Homo sapiens

>  <pchembl_median>  (577) 
7.07

$$$$
CHEMBL3828139
     RDKit          2D

 35 36  0  0  0  0  0  0  0  0999 V2000
    2.7990   -4.4462    0.0000 C   0  0  0  0  0  0  0  0  0  0  0  0
    1.5000   -5.1962    0.0000 C   0  0  0  0  0  0  0  0  0  0  0  0
    2.2500   -6.4952    0.0000 O   0  0  0  0  0  0  0  0  0  0  0  0
    0.7500   -3.8971    0.0000 C   0  0  0  0  0  0  0  0  0  0  0  0
    1.5000   -2.5981    0.0000 S   0  0  0  0  0  0  0  0  0  0  0  0
    0.7500   -1.2990    0.0000 C   0  0  0  0  0  0  0  0  0  0  0  0
    1.5000    0.0000    0.0000 C   0  0  0  0  0  0  0  0  0  0  0  0
    0.7500    1.2990    0.0000 C   0  0  0  0  0  0  0  0  0  0  0  0
    1.5000    2.5981    0.0000 C   0  0  0  0  0  0  0  0  0  0  0  0
    2.2500    3.8971    0.0000 F   0  0  0  0  0  0  0  0  0  0  0  0
    2.7990    1.8481    0.0000 F   0  0  0  0  0  0  0  0  0  0  0  0
    0.2010    3.3481    0.0000 F   0  0  0  0  0  0  0  0  0  0  0  0
   -0.7500    1.2990    0.0000 C   0  0  0  0  0  0  0  0  0  0  0  0
   -1.5000    0.0000    0.0000 C   0  0  0  0  0  0  0  0  0  0  0  0
   -3.0000    0.0000    0.0000 C   0  0  0  0  0  0  0  0  0  0  0  0
   -4.5000    0.0000    0.0000 F   0  0  0  0  0  0  0  0  0  0  0  0
   -3.0000    1.5000    0.0000 F   0  0  0  0  0  0  0  0  0  0  0  0
   -3.0000   -1.5000    0.0000 F   0  0  0  0  0  0  0  0  0  0  0  0
   -0.7500   -1.2990    0.0000 C   0  0  0  0  0  0  0  0  0  0  0  0
    0.2010   -5.9462    0.0000 C   0  0  0  0  0  0  0  0  0  0  0  0
   -1.0981   -5.1962    0.0000 O   0  0  0  0  0  0  0  0  0  0  0  0
    0.2010   -7.4462    0.0000 N   0  0  0  0  0  0  0  0  0  0  0  0
   -1.0981   -8.1962    0.0000 C   0  0  0  0  0  0  0  0  0  0  0  0
   -2.3971   -7.4462    0.0000 C   0  0  0  0  0  0  0  0  0  0  0  0
   -3.6962   -8.1962    0.0000 C   0  0  0  0  0  0  0  0  0  0  0  0
   -3.6962   -9.6962    0.0000 C   0  0  0  0  0  0  0  0  0  0  0  0
   -4.9952  -10.4462    0.0000 N   0  0  0  0  0  4  0  0  0  0  0  0
   -4.9952  -11.9462    0.0000 O   0  0  0  0  0  0  0  0  0  0  0  0
   -6.2942   -9.6962    0.0000 O   0  0  0  0  0  1  0  0  0  0  0  0
   -2.3971  -10.4462    0.0000 C   0  0  0  0  0  0  0  0  0  0  0  0
   -2.3971  -11.9462    0.0000 C   0  0  0  0  0  0  0  0  0  0  0  0
   -2.3971  -13.4462    0.0000 F   0  0  0  0  0  0  0  0  0  0  0  0
   -0.8971  -11.9462    0.0000 F   0  0  0  0  0  0  0  0  0  0  0  0
   -3.8971  -11.9462    0.0000 F   0  0  0  0  0  0  0  0  0  0  0  0
   -1.0981   -9.6962    0.0000 C   0  0  0  0  0  0  0  0  0  0  0  0
  1  2  1  0
  2  3  1  0
  2  4  1  0
  4  5  1  0
  5  6  1  0
  6  7  2  0
  7  8  1  0
  8  9  1  0
  9 10  1  0
  9 11  1  0
  9 12  1  0
  8 13  2  0
 13 14  1  0
 14 15  1  0
 15 16  1  0
 15 17  1  0
 15 18  1  0
 14 19  2  0
  2 20  1  0
 20 21  2  0
 20 22  1  0
 22 23  1  0
 23 24  2  0
 24 25  1  0
 25 26  2  0
 26 27  1  0
 27 28  2  0
 27 29  1  0
 26 30  1  0
 30 31  1  0
 31 32  1  0
 31 33  1  0
 31 34  1  0
 30 35  2  0
 19  6  1  0
 35 23  1  0
M  CHG  2  27   1  29  -1
M  END
>  <assay_chembl_id>  (578) 
CHEMBL3829948

>  <assay_description>  (578) 
Antagonist activity at GAL4 DBD-fused androgen receptor LBD (unknown origin) transfected in UAS-bla GripTite 293 cells assessed as inhibition of R1881-induced receptor activation after 16 to 24 hrs by beta-lactamase reporter gene assay

>  <parent_molecule_chembl_id>  (578) 
CHEMBL3828139

>  <canonical_smiles>  (578) 
CC(O)(CSc1cc(C(F)(F)F)cc(C(F)(F)F)c1)C(=O)Nc1ccc([N+](=O)[O-])c(C(F)(F)F)c1

>  <standard_type>  (578) 
IC50

>  <standard_relation>  (578) 
=

>  <standard_value>  (578) 
710.0

>  <standard_units>  (578) 
nM

>  <target_pref_name>  (578) 
Androgen Receptor

>  <target_chembl_id>  (578) 
CHEMBL1871

>  <target_organism>  (578) 
Homo sapiens

>  <pchembl_median>  (578) 
8.8

$$$$
CHEMBL3827008
     RDKit          2D

 37 38  0  0  0  0  0  0  0  0999 V2000
    3.7500   -2.3971    0.0000 C   0  0  0  0  0  0  0  0  0  0  0  0
    3.7500   -3.8971    0.0000 C   0  0  0  0  0  0  0  0  0  0  0  0
    5.2500   -3.8971    0.0000 O   0  0  0  0  0  0  0  0  0  0  0  0
    2.2500   -3.8971    0.0000 C   0  0  0  0  0  0  0  0  0  0  0  0
    1.5000   -2.5981    0.0000 S   0  0  0  0  0  0  0  0  0  0  0  0
    2.7990   -1.8481    0.0000 O   0  0  0  0  0  0  0  0  0  0  0  0
    0.2010   -3.3481    0.0000 O   0  0  0  0  0  0  0  0  0  0  0  0
    0.7500   -1.2990    0.0000 C   0  0  0  0  0  0  0  0  0  0  0  0
    1.5000    0.0000    0.0000 C   0  0  0  0  0  0  0  0  0  0  0  0
    0.7500    1.2990    0.0000 C   0  0  0  0  0  0  0  0  0  0  0  0
    1.5000    2.5981    0.0000 C   0  0  0  0  0  0  0  0  0  0  0  0
    2.2500    3.8971    0.0000 F   0  0  0  0  0  0  0  0  0  0  0  0
    2.7990    1.8481    0.0000 F   0  0  0  0  0  0  0  0  0  0  0  0
    0.2010    3.3481    0.0000 F   0  0  0  0  0  0  0  0  0  0  0  0
   -0.7500    1.2990    0.0000 C   0  0  0  0  0  0  0  0  0  0  0  0
   -1.5000    0.0000    0.0000 C   0  0  0  0  0  0  0  0  0  0  0  0
   -3.0000    0.0000    0.0000 C   0  0  0  0  0  0  0  0  0  0  0  0
   -4.5000    0.0000    0.0000 F   0  0  0  0  0  0  0  0  0  0  0  0
   -3.0000    1.5000    0.0000 F   0  0  0  0  0  0  0  0  0  0  0  0
   -3.0000   -1.5000    0.0000 F   0  0  0  0  0  0  0  0  0  0  0  0
   -0.7500   -1.2990    0.0000 C   0  0  0  0  0  0  0  0  0  0  0  0
    3.7500   -5.3971    0.0000 C   0  0  0  0  0  0  0  0  0  0  0  0
    2.4510   -6.1471    0.0000 O   0  0  0  0  0  0  0  0  0  0  0  0
    5.0490   -6.1471    0.0000 N   0  0  0  0  0  0  0  0  0  0  0  0
    5.0490   -7.6471    0.0000 C   0  0  0  0  0  0  0  0  0  0  0  0
    3.7500   -8.3971    0.0000 C   0  0  0  0  0  0  0  0  0  0  0  0
    3.7500   -9.8971    0.0000 C   0  0  0  0  0  0  0  0  0  0  0  0
    5.0490  -10.6471    0.0000 C   0  0  0  0  0  0  0  0  0  0  0  0
    5.0490  -12.1471    0.0000 N   0  0  0  0  0  4  0  0  0  0  0  0
    6.3481  -12.8971    0.0000 O   0  0  0  0  0  0  0  0  0  0  0  0
    3.7500  -12.8971    0.0000 O   0  0  0  0  0  1  0  0  0  0  0  0
    6.3481   -9.8971    0.0000 C   0  0  0  0  0  0  0  0  0  0  0  0
    7.6471  -10.6471    0.0000 C   0  0  0  0  0  0  0  0  0  0  0  0
    8.9462  -11.3971    0.0000 F   0  0  0  0  0  0  0  0  0  0  0  0
    8.3971   -9.3481    0.0000 F   0  0  0  0  0  0  0  0  0  0  0  0
    6.8971  -11.9462    0.0000 F   0  0  0  0  0  0  0  0  0  0  0  0
    6.3481   -8.3971    0.0000 C   0  0  0  0  0  0  0  0  0  0  0  0
  1  2  1  0
  2  3  1  0
  2  4  1  0
  4  5  1  0
  5  6  2  0
  5  7  2  0
  5  8  1  0
  8  9  2  0
  9 10  1  0
 10 11  1  0
 11 12  1  0
 11 13  1  0
 11 14  1  0
 10 15  2  0
 15 16  1  0
 16 17  1  0
 17 18  1  0
 17 19  1  0
 17 20  1  0
 16 21  2  0
  2 22  1  0
 22 23  2  0
 22 24  1  0
 24 25  1  0
 25 26  2  0
 26 27  1  0
 27 28  2  0
 28 29  1  0
 29 30  2  0
 29 31  1  0
 28 32  1  0
 32 33  1  0
 33 34  1  0
 33 35  1  0
 33 36  1  0
 32 37  2  0
 21  8  1  0
 37 25  1  0
M  CHG  2  29   1  31  -1
M  END
>  <assay_chembl_id>  (579) 
CHEMBL3829948

>  <assay_description>  (579) 
Antagonist activity at GAL4 DBD-fused androgen receptor LBD (unknown origin) transfected in UAS-bla GripTite 293 cells assessed as inhibition of R1881-induced receptor activation after 16 to 24 hrs by beta-lactamase reporter gene assay

>  <parent_molecule_chembl_id>  (579) 
CHEMBL3827008

>  <canonical_smiles>  (579) 
CC(O)(CS(=O)(=O)c1cc(C(F)(F)F)cc(C(F)(F)F)c1)C(=O)Nc1ccc([N+](=O)[O-])c(C(F)(F)F)c1

>  <standard_type>  (579) 
IC50

>  <standard_relation>  (579) 
=

>  <standard_value>  (579) 
3100.0

>  <standard_units>  (579) 
nM

>  <target_pref_name>  (579) 
Androgen Receptor

>  <target_chembl_id>  (579) 
CHEMBL1871

>  <target_organism>  (579) 
Homo sapiens

>  <pchembl_median>  (579) 
8.49

$$$$
CHEMBL3948452
     RDKit          2D

 40 43  0  0  0  0  0  0  0  0999 V2000
    4.7302   -3.7586    0.0000 C   0  0  0  0  0  0  0  0  0  0  0  0
    3.3037   -4.2221    0.0000 C   0  0  0  0  0  0  0  0  0  0  0  0
    3.9138   -5.5924    0.0000 C   0  0  0  0  0  0  0  0  0  0  0  0
    2.9918   -2.7549    0.0000 C   0  0  0  0  0  0  0  0  0  0  0  0
    3.9955   -1.6402    0.0000 O   0  0  0  0  0  0  0  0  0  0  0  0
    1.5000   -2.5981    0.0000 N   0  0  0  0  0  0  0  0  0  0  0  0
    0.7500   -1.2990    0.0000 C   0  0  0  0  0  0  0  0  0  0  0  0
    1.5000    0.0000    0.0000 C   0  0  0  0  0  0  0  0  0  0  0  0
    0.7500    1.2990    0.0000 C   0  0  0  0  0  0  0  0  0  0  0  0
   -0.7500    1.2990    0.0000 C   0  0  0  0  0  0  0  0  0  0  0  0
   -1.5000    2.5981    0.0000 C   0  0  0  0  0  0  0  0  0  0  0  0
   -2.2500    3.8971    0.0000 N   0  0  0  0  0  0  0  0  0  0  0  0
   -1.5000    0.0000    0.0000 C   0  0  0  0  0  0  0  0  0  0  0  0
   -3.0000    0.0000    0.0000 C   0  0  0  0  0  0  0  0  0  0  0  0
   -4.5000    0.0000    0.0000 F   0  0  0  0  0  0  0  0  0  0  0  0
   -3.0000   -1.5000    0.0000 F   0  0  0  0  0  0  0  0  0  0  0  0
   -3.0000    1.5000    0.0000 F   0  0  0  0  0  0  0  0  0  0  0  0
   -0.7500   -1.2990    0.0000 C   0  0  0  0  0  0  0  0  0  0  0  0
    0.8899   -3.9684    0.0000 C   0  0  0  0  0  0  0  0  0  0  0  0
   -0.5773   -4.2803    0.0000 S   0  0  0  0  0  0  0  0  0  0  0  0
    2.0046   -4.9721    0.0000 N   0  0  0  0  0  0  0  0  0  0  0  0
    1.8478   -6.4639    0.0000 C   0  0  0  0  0  0  0  0  0  0  0  0
    0.4775   -7.0740    0.0000 C   0  0  0  0  0  0  0  0  0  0  0  0
    0.3207   -8.5658    0.0000 C   0  0  0  0  0  0  0  0  0  0  0  0
    1.5342   -9.4474    0.0000 C   0  0  0  0  0  0  0  0  0  0  0  0
    1.3774  -10.9392    0.0000 C   0  0  0  0  0  0  0  0  0  0  0  0
    2.5910  -11.8209    0.0000 C   0  0  0  0  0  0  0  0  0  0  0  0
    2.4342  -13.3127    0.0000 C   0  0  0  0  0  0  0  0  0  0  0  0
    1.0639  -13.9228    0.0000 O   0  0  0  0  0  0  0  0  0  0  0  0
    3.6477  -14.1944    0.0000 N   0  0  0  0  0  0  0  0  0  0  0  0
    3.4909  -15.6861    0.0000 C   0  0  0  0  0  0  0  0  0  0  0  0
    2.1206  -16.2962    0.0000 C   0  0  0  0  0  0  0  0  0  0  0  0
    1.9638  -17.7880    0.0000 C   0  0  0  0  0  0  0  0  0  0  0  0
    3.1773  -18.6697    0.0000 C   0  0  0  0  0  0  0  0  0  0  0  0
    4.5476  -18.0596    0.0000 C   0  0  0  0  0  0  0  0  0  0  0  0
    4.7044  -16.5678    0.0000 C   0  0  0  0  0  0  0  0  0  0  0  0
    6.0748  -15.9577    0.0000 N   0  0  0  0  0  0  0  0  0  0  0  0
    2.9046   -8.8373    0.0000 C   0  0  0  0  0  0  0  0  0  0  0  0
    4.1181   -9.7190    0.0000 F   0  0  0  0  0  0  0  0  0  0  0  0
    3.0613   -7.3456    0.0000 C   0  0  0  0  0  0  0  0  0  0  0  0
  1  2  1  0
  2  3  1  0
  2  4  1  0
  4  5  2  0
  4  6  1  0
  6  7  1  0
  7  8  2  0
  8  9  1  0
  9 10  2  0
 10 11  1  0
 11 12  3  0
 10 13  1  0
 13 14  1  0
 14 15  1  0
 14 16  1  0
 14 17  1  0
 13 18  2  0
  6 19  1  0
 19 20  2  0
 19 21  1  0
 21 22  1  0
 22 23  2  0
 23 24  1  0
 24 25  2  0
 25 26  1  0
 26 27  2  0
 27 28  1  0
 28 29  2  0
 28 30  1  0
 30 31  1  0
 31 32  2  0
 32 33  1  0
 33 34  2  0
 34 35  1  0
 35 36  2  0
 36 37  1  0
 25 38  1  0
 38 39  1  0
 38 40  2  0
 21  2  1  0
 40 22  1  0
 18  7  1  0
 36 31  1  0
M  END
>  <assay_chembl_id>  (580) 
CHEMBL3863626

>  <assay_description>  (580) 
Displacement of [3H]mibolerone from androgen receptor (unknown origin) in membranes after 24 hrs by HAP adsorption assay

>  <parent_molecule_chembl_id>  (580) 
CHEMBL3948452

>  <canonical_smiles>  (580) 
CC1(C)C(=O)N(c2ccc(C#N)c(C(F)(F)F)c2)C(=S)N1c1ccc(/C=C/C(=O)Nc2ccccc2N)c(F)c1

>  <standard_type>  (580) 
IC50

>  <standard_relation>  (580) 
=

>  <standard_value>  (580) 
230.0

>  <standard_units>  (580) 
nM

>  <target_pref_name>  (580) 
Androgen Receptor

>  <target_chembl_id>  (580) 
CHEMBL1871

>  <target_organism>  (580) 
Homo sapiens

>  <pchembl_median>  (580) 
5.11

$$$$
CHEMBL3955013
     RDKit          2D

 38 41  0  0  0  0  0  0  0  0999 V2000
    4.7302   -3.7586    0.0000 C   0  0  0  0  0  0  0  0  0  0  0  0
    3.3037   -4.2221    0.0000 C   0  0  0  0  0  0  0  0  0  0  0  0
    3.9138   -5.5924    0.0000 C   0  0  0  0  0  0  0  0  0  0  0  0
    2.9918   -2.7549    0.0000 C   0  0  0  0  0  0  0  0  0  0  0  0
    3.9955   -1.6402    0.0000 O   0  0  0  0  0  0  0  0  0  0  0  0
    1.5000   -2.5981    0.0000 N   0  0  0  0  0  0  0  0  0  0  0  0
    0.7500   -1.2990    0.0000 C   0  0  0  0  0  0  0  0  0  0  0  0
    1.5000    0.0000    0.0000 C   0  0  0  0  0  0  0  0  0  0  0  0
    0.7500    1.2990    0.0000 C   0  0  0  0  0  0  0  0  0  0  0  0
   -0.7500    1.2990    0.0000 C   0  0  0  0  0  0  0  0  0  0  0  0
   -1.5000    2.5981    0.0000 C   0  0  0  0  0  0  0  0  0  0  0  0
   -2.2500    3.8971    0.0000 N   0  0  0  0  0  0  0  0  0  0  0  0
   -1.5000    0.0000    0.0000 C   0  0  0  0  0  0  0  0  0  0  0  0
   -3.0000    0.0000    0.0000 C   0  0  0  0  0  0  0  0  0  0  0  0
   -4.5000    0.0000    0.0000 F   0  0  0  0  0  0  0  0  0  0  0  0
   -3.0000   -1.5000    0.0000 F   0  0  0  0  0  0  0  0  0  0  0  0
   -3.0000    1.5000    0.0000 F   0  0  0  0  0  0  0  0  0  0  0  0
   -0.7500   -1.2990    0.0000 C   0  0  0  0  0  0  0  0  0  0  0  0
    0.8899   -3.9684    0.0000 C   0  0  0  0  0  0  0  0  0  0  0  0
   -0.5773   -4.2803    0.0000 S   0  0  0  0  0  0  0  0  0  0  0  0
    2.0046   -4.9721    0.0000 N   0  0  0  0  0  0  0  0  0  0  0  0
    1.8478   -6.4639    0.0000 C   0  0  0  0  0  0  0  0  0  0  0  0
    0.4775   -7.0740    0.0000 C   0  0  0  0  0  0  0  0  0  0  0  0
    0.3207   -8.5658    0.0000 C   0  0  0  0  0  0  0  0  0  0  0  0
    1.5342   -9.4474    0.0000 C   0  0  0  0  0  0  0  0  0  0  0  0
    1.3774  -10.9392    0.0000 C   0  0  0  0  0  0  0  0  0  0  0  0
    2.5910  -11.8209    0.0000 O   0  0  0  0  0  0  0  0  0  0  0  0
    0.0071  -11.5493    0.0000 N   0  0  0  0  0  0  0  0  0  0  0  0
   -0.1497  -13.0411    0.0000 C   0  0  0  0  0  0  0  0  0  0  0  0
   -1.5200  -13.6512    0.0000 C   0  0  0  0  0  0  0  0  0  0  0  0
   -1.6768  -15.1430    0.0000 C   0  0  0  0  0  0  0  0  0  0  0  0
   -0.4633  -16.0247    0.0000 C   0  0  0  0  0  0  0  0  0  0  0  0
    0.9071  -15.4146    0.0000 C   0  0  0  0  0  0  0  0  0  0  0  0
    1.0639  -13.9228    0.0000 C   0  0  0  0  0  0  0  0  0  0  0  0
    2.4342  -13.3127    0.0000 N   0  0  0  0  0  0  0  0  0  0  0  0
    2.9046   -8.8373    0.0000 C   0  0  0  0  0  0  0  0  0  0  0  0
    4.1181   -9.7190    0.0000 F   0  0  0  0  0  0  0  0  0  0  0  0
    3.0613   -7.3456    0.0000 C   0  0  0  0  0  0  0  0  0  0  0  0
  1  2  1  0
  2  3  1  0
  2  4  1  0
  4  5  2  0
  4  6  1  0
  6  7  1  0
  7  8  2  0
  8  9  1  0
  9 10  2  0
 10 11  1  0
 11 12  3  0
 10 13  1  0
 13 14  1  0
 14 15  1  0
 14 16  1  0
 14 17  1  0
 13 18  2  0
  6 19  1  0
 19 20  2  0
 19 21  1  0
 21 22  1  0
 22 23  2  0
 23 24  1  0
 24 25  2  0
 25 26  1  0
 26 27  2  0
 26 28  1  0
 28 29  1  0
 29 30  2  0
 30 31  1  0
 31 32  2  0
 32 33  1  0
 33 34  2  0
 34 35  1  0
 25 36  1  0
 36 37  1  0
 36 38  2  0
 21  2  1  0
 38 22  1  0
 18  7  1  0
 34 29  1  0
M  END
>  <assay_chembl_id>  (581) 
CHEMBL3863626

>  <assay_description>  (581) 
Displacement of [3H]mibolerone from androgen receptor (unknown origin) in membranes after 24 hrs by HAP adsorption assay

>  <parent_molecule_chembl_id>  (581) 
CHEMBL3955013

>  <canonical_smiles>  (581) 
CC1(C)C(=O)N(c2ccc(C#N)c(C(F)(F)F)c2)C(=S)N1c1ccc(C(=O)Nc2ccccc2N)c(F)c1

>  <standard_type>  (581) 
IC50

>  <standard_relation>  (581) 
=

>  <standard_value>  (581) 
330.0

>  <standard_units>  (581) 
nM

>  <target_pref_name>  (581) 
Androgen Receptor

>  <target_chembl_id>  (581) 
CHEMBL1871

>  <target_organism>  (581) 
Homo sapiens

>  <pchembl_median>  (581) 
7.19

$$$$
CHEMBL3966165
     RDKit          2D

 40 42  0  0  0  0  0  0  0  0999 V2000
    4.7302   -3.7586    0.0000 C   0  0  0  0  0  0  0  0  0  0  0  0
    3.3037   -4.2221    0.0000 C   0  0  0  0  0  0  0  0  0  0  0  0
    3.9138   -5.5924    0.0000 C   0  0  0  0  0  0  0  0  0  0  0  0
    2.9918   -2.7549    0.0000 C   0  0  0  0  0  0  0  0  0  0  0  0
    3.9955   -1.6402    0.0000 O   0  0  0  0  0  0  0  0  0  0  0  0
    1.5000   -2.5981    0.0000 N   0  0  0  0  0  0  0  0  0  0  0  0
    0.7500   -1.2990    0.0000 C   0  0  0  0  0  0  0  0  0  0  0  0
    1.5000    0.0000    0.0000 C   0  0  0  0  0  0  0  0  0  0  0  0
    0.7500    1.2990    0.0000 C   0  0  0  0  0  0  0  0  0  0  0  0
   -0.7500    1.2990    0.0000 C   0  0  0  0  0  0  0  0  0  0  0  0
   -1.5000    2.5981    0.0000 C   0  0  0  0  0  0  0  0  0  0  0  0
   -2.2500    3.8971    0.0000 N   0  0  0  0  0  0  0  0  0  0  0  0
   -1.5000    0.0000    0.0000 C   0  0  0  0  0  0  0  0  0  0  0  0
   -3.0000    0.0000    0.0000 C   0  0  0  0  0  0  0  0  0  0  0  0
   -4.5000    0.0000    0.0000 F   0  0  0  0  0  0  0  0  0  0  0  0
   -3.0000   -1.5000    0.0000 F   0  0  0  0  0  0  0  0  0  0  0  0
   -3.0000    1.5000    0.0000 F   0  0  0  0  0  0  0  0  0  0  0  0
   -0.7500   -1.2990    0.0000 C   0  0  0  0  0  0  0  0  0  0  0  0
    0.8899   -3.9684    0.0000 C   0  0  0  0  0  0  0  0  0  0  0  0
   -0.5773   -4.2803    0.0000 S   0  0  0  0  0  0  0  0  0  0  0  0
    2.0046   -4.9721    0.0000 N   0  0  0  0  0  0  0  0  0  0  0  0
    1.8478   -6.4639    0.0000 C   0  0  0  0  0  0  0  0  0  0  0  0
    0.4775   -7.0740    0.0000 C   0  0  0  0  0  0  0  0  0  0  0  0
    0.3207   -8.5658    0.0000 C   0  0  0  0  0  0  0  0  0  0  0  0
    1.5342   -9.4474    0.0000 C   0  0  0  0  0  0  0  0  0  0  0  0
    1.3774  -10.9392    0.0000 C   0  0  0  0  0  0  0  0  0  0  0  0
    2.5910  -11.8209    0.0000 O   0  0  0  0  0  0  0  0  0  0  0  0
    0.0071  -11.5493    0.0000 N   0  0  0  0  0  0  0  0  0  0  0  0
   -0.1497  -13.0411    0.0000 C   0  0  0  0  0  0  0  0  0  0  0  0
   -1.5200  -13.6512    0.0000 C   0  0  0  0  0  0  0  0  0  0  0  0
   -1.6768  -15.1430    0.0000 O   0  0  0  0  0  0  0  0  0  0  0  0
   -3.0471  -15.7531    0.0000 C   0  0  0  0  0  0  0  0  0  0  0  0
   -3.2039  -17.2449    0.0000 C   0  0  0  0  0  0  0  0  0  0  0  0
   -4.5742  -17.8550    0.0000 C   0  0  0  0  0  0  0  0  0  0  0  0
   -5.7877  -16.9733    0.0000 O   0  0  0  0  0  0  0  0  0  0  0  0
   -4.7310  -19.3468    0.0000 N   0  0  0  0  0  0  0  0  0  0  0  0
   -6.1013  -19.9569    0.0000 O   0  0  0  0  0  0  0  0  0  0  0  0
    2.9046   -8.8373    0.0000 C   0  0  0  0  0  0  0  0  0  0  0  0
    4.1181   -9.7190    0.0000 F   0  0  0  0  0  0  0  0  0  0  0  0
    3.0613   -7.3456    0.0000 C   0  0  0  0  0  0  0  0  0  0  0  0
  1  2  1  0
  2  3  1  0
  2  4  1  0
  4  5  2  0
  4  6  1  0
  6  7  1  0
  7  8  2  0
  8  9  1  0
  9 10  2  0
 10 11  1  0
 11 12  3  0
 10 13  1  0
 13 14  1  0
 14 15  1  0
 14 16  1  0
 14 17  1  0
 13 18  2  0
  6 19  1  0
 19 20  2  0
 19 21  1  0
 21 22  1  0
 22 23  2  0
 23 24  1  0
 24 25  2  0
 25 26  1  0
 26 27  2  0
 26 28  1  0
 28 29  1  0
 29 30  1  0
 30 31  1  0
 31 32  1  0
 32 33  1  0
 33 34  1  0
 34 35  2  0
 34 36  1  0
 36 37  1  0
 25 38  1  0
 38 39  1  0
 38 40  2  0
 21  2  1  0
 40 22  1  0
 18  7  1  0
M  END
>  <assay_chembl_id>  (582) 
CHEMBL3863626

>  <assay_description>  (582) 
Displacement of [3H]mibolerone from androgen receptor (unknown origin) in membranes after 24 hrs by HAP adsorption assay

>  <parent_molecule_chembl_id>  (582) 
CHEMBL3966165

>  <canonical_smiles>  (582) 
CC1(C)C(=O)N(c2ccc(C#N)c(C(F)(F)F)c2)C(=S)N1c1ccc(C(=O)NCCOCCC(=O)NO)c(F)c1

>  <standard_type>  (582) 
IC50

>  <standard_relation>  (582) 
=

>  <standard_value>  (582) 
78.0

>  <standard_units>  (582) 
nM

>  <target_pref_name>  (582) 
Androgen Receptor

>  <target_chembl_id>  (582) 
CHEMBL1871

>  <target_organism>  (582) 
Homo sapiens

>  <pchembl_median>  (582) 
7.96

$$$$
CHEMBL3894825
     RDKit          2D

 40 42  0  0  0  0  0  0  0  0999 V2000
    4.7302   -3.7586    0.0000 C   0  0  0  0  0  0  0  0  0  0  0  0
    3.3037   -4.2221    0.0000 C   0  0  0  0  0  0  0  0  0  0  0  0
    3.9138   -5.5924    0.0000 C   0  0  0  0  0  0  0  0  0  0  0  0
    2.9918   -2.7549    0.0000 C   0  0  0  0  0  0  0  0  0  0  0  0
    3.9955   -1.6402    0.0000 O   0  0  0  0  0  0  0  0  0  0  0  0
    1.5000   -2.5981    0.0000 N   0  0  0  0  0  0  0  0  0  0  0  0
    0.7500   -1.2990    0.0000 C   0  0  0  0  0  0  0  0  0  0  0  0
    1.5000    0.0000    0.0000 C   0  0  0  0  0  0  0  0  0  0  0  0
    0.7500    1.2990    0.0000 C   0  0  0  0  0  0  0  0  0  0  0  0
   -0.7500    1.2990    0.0000 C   0  0  0  0  0  0  0  0  0  0  0  0
   -1.5000    2.5981    0.0000 C   0  0  0  0  0  0  0  0  0  0  0  0
   -2.2500    3.8971    0.0000 N   0  0  0  0  0  0  0  0  0  0  0  0
   -1.5000    0.0000    0.0000 C   0  0  0  0  0  0  0  0  0  0  0  0
   -3.0000    0.0000    0.0000 C   0  0  0  0  0  0  0  0  0  0  0  0
   -4.5000    0.0000    0.0000 F   0  0  0  0  0  0  0  0  0  0  0  0
   -3.0000   -1.5000    0.0000 F   0  0  0  0  0  0  0  0  0  0  0  0
   -3.0000    1.5000    0.0000 F   0  0  0  0  0  0  0  0  0  0  0  0
   -0.7500   -1.2990    0.0000 C   0  0  0  0  0  0  0  0  0  0  0  0
    0.8899   -3.9684    0.0000 C   0  0  0  0  0  0  0  0  0  0  0  0
   -0.5773   -4.2803    0.0000 S   0  0  0  0  0  0  0  0  0  0  0  0
    2.0046   -4.9721    0.0000 N   0  0  0  0  0  0  0  0  0  0  0  0
    1.8478   -6.4639    0.0000 C   0  0  0  0  0  0  0  0  0  0  0  0
    0.4775   -7.0740    0.0000 C   0  0  0  0  0  0  0  0  0  0  0  0
    0.3207   -8.5658    0.0000 C   0  0  0  0  0  0  0  0  0  0  0  0
    1.5342   -9.4474    0.0000 C   0  0  0  0  0  0  0  0  0  0  0  0
    1.3774  -10.9392    0.0000 C   0  0  0  0  0  0  0  0  0  0  0  0
    2.5910  -11.8209    0.0000 O   0  0  0  0  0  0  0  0  0  0  0  0
    0.0071  -11.5493    0.0000 O   0  0  0  0  0  0  0  0  0  0  0  0
   -0.1497  -13.0411    0.0000 C   0  0  0  0  0  0  0  0  0  0  0  0
   -1.5200  -13.6512    0.0000 C   0  0  0  0  0  0  0  0  0  0  0  0
   -1.6768  -15.1430    0.0000 C   0  0  0  0  0  0  0  0  0  0  0  0
   -3.0471  -15.7531    0.0000 C   0  0  0  0  0  0  0  0  0  0  0  0
   -3.2039  -17.2449    0.0000 C   0  0  0  0  0  0  0  0  0  0  0  0
   -4.5742  -17.8550    0.0000 C   0  0  0  0  0  0  0  0  0  0  0  0
   -5.7877  -16.9733    0.0000 O   0  0  0  0  0  0  0  0  0  0  0  0
   -4.7310  -19.3468    0.0000 N   0  0  0  0  0  0  0  0  0  0  0  0
   -6.1013  -19.9569    0.0000 O   0  0  0  0  0  0  0  0  0  0  0  0
    2.9046   -8.8373    0.0000 C   0  0  0  0  0  0  0  0  0  0  0  0
    4.1181   -9.7190    0.0000 F   0  0  0  0  0  0  0  0  0  0  0  0
    3.0613   -7.3456    0.0000 C   0  0  0  0  0  0  0  0  0  0  0  0
  1  2  1  0
  2  3  1  0
  2  4  1  0
  4  5  2  0
  4  6  1  0
  6  7  1  0
  7  8  2  0
  8  9  1  0
  9 10  2  0
 10 11  1  0
 11 12  3  0
 10 13  1  0
 13 14  1  0
 14 15  1  0
 14 16  1  0
 14 17  1  0
 13 18  2  0
  6 19  1  0
 19 20  2  0
 19 21  1  0
 21 22  1  0
 22 23  2  0
 23 24  1  0
 24 25  2  0
 25 26  1  0
 26 27  2  0
 26 28  1  0
 28 29  1  0
 29 30  1  0
 30 31  1  0
 31 32  1  0
 32 33  1  0
 33 34  1  0
 34 35  2  0
 34 36  1  0
 36 37  1  0
 25 38  1  0
 38 39  1  0
 38 40  2  0
 21  2  1  0
 40 22  1  0
 18  7  1  0
M  END
>  <assay_chembl_id>  (583) 
CHEMBL3863626

>  <assay_description>  (583) 
Displacement of [3H]mibolerone from androgen receptor (unknown origin) in membranes after 24 hrs by HAP adsorption assay

>  <parent_molecule_chembl_id>  (583) 
CHEMBL3894825

>  <canonical_smiles>  (583) 
CC1(C)C(=O)N(c2ccc(C#N)c(C(F)(F)F)c2)C(=S)N1c1ccc(C(=O)OCCCCCC(=O)NO)c(F)c1

>  <standard_type>  (583) 
IC50

>  <standard_relation>  (583) 
=

>  <standard_value>  (583) 
43.0

>  <standard_units>  (583) 
nM

>  <target_pref_name>  (583) 
Androgen Receptor

>  <target_chembl_id>  (583) 
CHEMBL1871

>  <target_organism>  (583) 
Homo sapiens

>  <pchembl_median>  (583) 
8.74

$$$$
CHEMBL3974665
     RDKit          2D

 39 41  0  0  0  0  0  0  0  0999 V2000
    4.7302   -3.7586    0.0000 C   0  0  0  0  0  0  0  0  0  0  0  0
    3.3037   -4.2221    0.0000 C   0  0  0  0  0  0  0  0  0  0  0  0
    3.9138   -5.5924    0.0000 C   0  0  0  0  0  0  0  0  0  0  0  0
    2.9918   -2.7549    0.0000 C   0  0  0  0  0  0  0  0  0  0  0  0
    3.9955   -1.6402    0.0000 O   0  0  0  0  0  0  0  0  0  0  0  0
    1.5000   -2.5981    0.0000 N   0  0  0  0  0  0  0  0  0  0  0  0
    0.7500   -1.2990    0.0000 C   0  0  0  0  0  0  0  0  0  0  0  0
    1.5000    0.0000    0.0000 C   0  0  0  0  0  0  0  0  0  0  0  0
    0.7500    1.2990    0.0000 C   0  0  0  0  0  0  0  0  0  0  0  0
   -0.7500    1.2990    0.0000 C   0  0  0  0  0  0  0  0  0  0  0  0
   -1.5000    2.5981    0.0000 C   0  0  0  0  0  0  0  0  0  0  0  0
   -2.2500    3.8971    0.0000 N   0  0  0  0  0  0  0  0  0  0  0  0
   -1.5000    0.0000    0.0000 C   0  0  0  0  0  0  0  0  0  0  0  0
   -3.0000    0.0000    0.0000 C   0  0  0  0  0  0  0  0  0  0  0  0
   -4.5000    0.0000    0.0000 F   0  0  0  0  0  0  0  0  0  0  0  0
   -3.0000   -1.5000    0.0000 F   0  0  0  0  0  0  0  0  0  0  0  0
   -3.0000    1.5000    0.0000 F   0  0  0  0  0  0  0  0  0  0  0  0
   -0.7500   -1.2990    0.0000 C   0  0  0  0  0  0  0  0  0  0  0  0
    0.8899   -3.9684    0.0000 C   0  0  0  0  0  0  0  0  0  0  0  0
   -0.5773   -4.2803    0.0000 S   0  0  0  0  0  0  0  0  0  0  0  0
    2.0046   -4.9721    0.0000 N   0  0  0  0  0  0  0  0  0  0  0  0
    1.8478   -6.4639    0.0000 C   0  0  0  0  0  0  0  0  0  0  0  0
    0.4775   -7.0740    0.0000 C   0  0  0  0  0  0  0  0  0  0  0  0
    0.3207   -8.5658    0.0000 C   0  0  0  0  0  0  0  0  0  0  0  0
    1.5342   -9.4474    0.0000 C   0  0  0  0  0  0  0  0  0  0  0  0
    1.3774  -10.9392    0.0000 C   0  0  0  0  0  0  0  0  0  0  0  0
    2.5910  -11.8209    0.0000 O   0  0  0  0  0  0  0  0  0  0  0  0
    0.0071  -11.5493    0.0000 N   0  0  0  0  0  0  0  0  0  0  0  0
   -0.1497  -13.0411    0.0000 C   0  0  0  0  0  0  0  0  0  0  0  0
   -1.5200  -13.6512    0.0000 C   0  0  0  0  0  0  0  0  0  0  0  0
   -1.6768  -15.1430    0.0000 C   0  0  0  0  0  0  0  0  0  0  0  0
   -3.0471  -15.7531    0.0000 N   0  0  0  0  0  0  0  0  0  0  0  0
   -3.2039  -17.2449    0.0000 S   0  0  0  0  0  0  0  0  0  0  0  0
   -3.3607  -18.7367    0.0000 N   0  0  0  0  0  0  0  0  0  0  0  0
   -1.7121  -17.4017    0.0000 O   0  0  0  0  0  0  0  0  0  0  0  0
   -4.6957  -17.0881    0.0000 O   0  0  0  0  0  0  0  0  0  0  0  0
    2.9046   -8.8373    0.0000 C   0  0  0  0  0  0  0  0  0  0  0  0
    4.1181   -9.7190    0.0000 F   0  0  0  0  0  0  0  0  0  0  0  0
    3.0613   -7.3456    0.0000 C   0  0  0  0  0  0  0  0  0  0  0  0
  1  2  1  0
  2  3  1  0
  2  4  1  0
  4  5  2  0
  4  6  1  0
  6  7  1  0
  7  8  2  0
  8  9  1  0
  9 10  2  0
 10 11  1  0
 11 12  3  0
 10 13  1  0
 13 14  1  0
 14 15  1  0
 14 16  1  0
 14 17  1  0
 13 18  2  0
  6 19  1  0
 19 20  2  0
 19 21  1  0
 21 22  1  0
 22 23  2  0
 23 24  1  0
 24 25  2  0
 25 26  1  0
 26 27  2  0
 26 28  1  0
 28 29  1  0
 29 30  1  0
 30 31  1  0
 31 32  1  0
 32 33  1  0
 33 34  1  0
 33 35  2  0
 33 36  2  0
 25 37  1  0
 37 38  1  0
 37 39  2  0
 21  2  1  0
 39 22  1  0
 18  7  1  0
M  END
>  <assay_chembl_id>  (584) 
CHEMBL3863626

>  <assay_description>  (584) 
Displacement of [3H]mibolerone from androgen receptor (unknown origin) in membranes after 24 hrs by HAP adsorption assay

>  <parent_molecule_chembl_id>  (584) 
CHEMBL3974665

>  <canonical_smiles>  (584) 
CC1(C)C(=O)N(c2ccc(C#N)c(C(F)(F)F)c2)C(=S)N1c1ccc(C(=O)NCCCNS(N)(=O)=O)c(F)c1

>  <standard_type>  (584) 
IC50

>  <standard_relation>  (584) 
=

>  <standard_value>  (584) 
350.0

>  <standard_units>  (584) 
nM

>  <target_pref_name>  (584) 
Androgen Receptor

>  <target_chembl_id>  (584) 
CHEMBL1871

>  <target_organism>  (584) 
Homo sapiens

>  <pchembl_median>  (584) 
8.49

$$$$
CHEMBL3903756
     RDKit          2D

 42 44  0  0  0  0  0  0  0  0999 V2000
    4.7302   -3.7586    0.0000 C   0  0  0  0  0  0  0  0  0  0  0  0
    3.3037   -4.2221    0.0000 C   0  0  0  0  0  0  0  0  0  0  0  0
    3.9138   -5.5924    0.0000 C   0  0  0  0  0  0  0  0  0  0  0  0
    2.9918   -2.7549    0.0000 C   0  0  0  0  0  0  0  0  0  0  0  0
    3.9955   -1.6402    0.0000 O   0  0  0  0  0  0  0  0  0  0  0  0
    1.5000   -2.5981    0.0000 N   0  0  0  0  0  0  0  0  0  0  0  0
    0.7500   -1.2990    0.0000 C   0  0  0  0  0  0  0  0  0  0  0  0
    1.5000    0.0000    0.0000 C   0  0  0  0  0  0  0  0  0  0  0  0
    0.7500    1.2990    0.0000 C   0  0  0  0  0  0  0  0  0  0  0  0
   -0.7500    1.2990    0.0000 C   0  0  0  0  0  0  0  0  0  0  0  0
   -1.5000    2.5981    0.0000 C   0  0  0  0  0  0  0  0  0  0  0  0
   -2.2500    3.8971    0.0000 N   0  0  0  0  0  0  0  0  0  0  0  0
   -1.5000    0.0000    0.0000 C   0  0  0  0  0  0  0  0  0  0  0  0
   -3.0000    0.0000    0.0000 C   0  0  0  0  0  0  0  0  0  0  0  0
   -4.5000    0.0000    0.0000 F   0  0  0  0  0  0  0  0  0  0  0  0
   -3.0000   -1.5000    0.0000 F   0  0  0  0  0  0  0  0  0  0  0  0
   -3.0000    1.5000    0.0000 F   0  0  0  0  0  0  0  0  0  0  0  0
   -0.7500   -1.2990    0.0000 C   0  0  0  0  0  0  0  0  0  0  0  0
    0.8899   -3.9684    0.0000 C   0  0  0  0  0  0  0  0  0  0  0  0
   -0.5773   -4.2803    0.0000 S   0  0  0  0  0  0  0  0  0  0  0  0
    2.0046   -4.9721    0.0000 N   0  0  0  0  0  0  0  0  0  0  0  0
    1.8478   -6.4639    0.0000 C   0  0  0  0  0  0  0  0  0  0  0  0
    0.4775   -7.0740    0.0000 C   0  0  0  0  0  0  0  0  0  0  0  0
    0.3207   -8.5658    0.0000 C   0  0  0  0  0  0  0  0  0  0  0  0
    1.5342   -9.4474    0.0000 C   0  0  0  0  0  0  0  0  0  0  0  0
    1.3774  -10.9392    0.0000 C   0  0  0  0  0  0  0  0  0  0  0  0
    2.5910  -11.8209    0.0000 O   0  0  0  0  0  0  0  0  0  0  0  0
    0.0071  -11.5493    0.0000 N   0  0  0  0  0  0  0  0  0  0  0  0
   -0.1497  -13.0411    0.0000 C   0  0  0  0  0  0  0  0  0  0  0  0
   -1.5200  -13.6512    0.0000 C   0  0  0  0  0  0  0  0  0  0  0  0
   -1.6768  -15.1430    0.0000 C   0  0  0  0  0  0  0  0  0  0  0  0
   -3.0471  -15.7531    0.0000 C   0  0  0  0  0  0  0  0  0  0  0  0
   -3.2039  -17.2449    0.0000 C   0  0  0  0  0  0  0  0  0  0  0  0
   -4.5742  -17.8550    0.0000 C   0  0  0  0  0  0  0  0  0  0  0  0
   -4.7310  -19.3468    0.0000 N   0  0  0  0  0  0  0  0  0  0  0  0
   -6.1013  -19.9569    0.0000 S   0  0  0  0  0  0  0  0  0  0  0  0
   -7.4716  -20.5670    0.0000 N   0  0  0  0  0  0  0  0  0  0  0  0
   -6.7114  -18.5866    0.0000 O   0  0  0  0  0  0  0  0  0  0  0  0
   -5.4912  -21.3272    0.0000 O   0  0  0  0  0  0  0  0  0  0  0  0
    2.9046   -8.8373    0.0000 C   0  0  0  0  0  0  0  0  0  0  0  0
    4.1181   -9.7190    0.0000 F   0  0  0  0  0  0  0  0  0  0  0  0
    3.0613   -7.3456    0.0000 C   0  0  0  0  0  0  0  0  0  0  0  0
  1  2  1  0
  2  3  1  0
  2  4  1  0
  4  5  2  0
  4  6  1  0
  6  7  1  0
  7  8  2  0
  8  9  1  0
  9 10  2  0
 10 11  1  0
 11 12  3  0
 10 13  1  0
 13 14  1  0
 14 15  1  0
 14 16  1  0
 14 17  1  0
 13 18  2  0
  6 19  1  0
 19 20  2  0
 19 21  1  0
 21 22  1  0
 22 23  2  0
 23 24  1  0
 24 25  2  0
 25 26  1  0
 26 27  2  0
 26 28  1  0
 28 29  1  0
 29 30  1  0
 30 31  1  0
 31 32  1  0
 32 33  1  0
 33 34  1  0
 34 35  1  0
 35 36  1  0
 36 37  1  0
 36 38  2  0
 36 39  2  0
 25 40  1  0
 40 41  1  0
 40 42  2  0
 21  2  1  0
 42 22  1  0
 18  7  1  0
M  END
>  <assay_chembl_id>  (585) 
CHEMBL3863626

>  <assay_description>  (585) 
Displacement of [3H]mibolerone from androgen receptor (unknown origin) in membranes after 24 hrs by HAP adsorption assay

>  <parent_molecule_chembl_id>  (585) 
CHEMBL3903756

>  <canonical_smiles>  (585) 
CC1(C)C(=O)N(c2ccc(C#N)c(C(F)(F)F)c2)C(=S)N1c1ccc(C(=O)NCCCCCCNS(N)(=O)=O)c(F)c1

>  <standard_type>  (585) 
IC50

>  <standard_relation>  (585) 
=

>  <standard_value>  (585) 
110.0

>  <standard_units>  (585) 
nM

>  <target_pref_name>  (585) 
Androgen Receptor

>  <target_chembl_id>  (585) 
CHEMBL1871

>  <target_organism>  (585) 
Homo sapiens

>  <pchembl_median>  (585) 
8.22

$$$$
CHEMBL3982650
     RDKit          2D

 42 45  0  0  0  0  0  0  0  0999 V2000
    4.7302   -3.7586    0.0000 C   0  0  0  0  0  0  0  0  0  0  0  0
    3.3037   -4.2221    0.0000 C   0  0  0  0  0  0  0  0  0  0  0  0
    3.9138   -5.5924    0.0000 C   0  0  0  0  0  0  0  0  0  0  0  0
    2.9918   -2.7549    0.0000 C   0  0  0  0  0  0  0  0  0  0  0  0
    3.9955   -1.6402    0.0000 O   0  0  0  0  0  0  0  0  0  0  0  0
    1.5000   -2.5981    0.0000 N   0  0  0  0  0  0  0  0  0  0  0  0
    0.7500   -1.2990    0.0000 C   0  0  0  0  0  0  0  0  0  0  0  0
    1.5000    0.0000    0.0000 C   0  0  0  0  0  0  0  0  0  0  0  0
    0.7500    1.2990    0.0000 C   0  0  0  0  0  0  0  0  0  0  0  0
   -0.7500    1.2990    0.0000 C   0  0  0  0  0  0  0  0  0  0  0  0
   -1.5000    2.5981    0.0000 C   0  0  0  0  0  0  0  0  0  0  0  0
   -2.2500    3.8971    0.0000 N   0  0  0  0  0  0  0  0  0  0  0  0
   -1.5000    0.0000    0.0000 C   0  0  0  0  0  0  0  0  0  0  0  0
   -3.0000    0.0000    0.0000 C   0  0  0  0  0  0  0  0  0  0  0  0
   -4.5000    0.0000    0.0000 F   0  0  0  0  0  0  0  0  0  0  0  0
   -3.0000   -1.5000    0.0000 F   0  0  0  0  0  0  0  0  0  0  0  0
   -3.0000    1.5000    0.0000 F   0  0  0  0  0  0  0  0  0  0  0  0
   -0.7500   -1.2990    0.0000 C   0  0  0  0  0  0  0  0  0  0  0  0
    0.8899   -3.9684    0.0000 C   0  0  0  0  0  0  0  0  0  0  0  0
   -0.5773   -4.2803    0.0000 S   0  0  0  0  0  0  0  0  0  0  0  0
    2.0046   -4.9721    0.0000 N   0  0  0  0  0  0  0  0  0  0  0  0
    1.8478   -6.4639    0.0000 C   0  0  0  0  0  0  0  0  0  0  0  0
    0.4775   -7.0740    0.0000 C   0  0  0  0  0  0  0  0  0  0  0  0
    0.3207   -8.5658    0.0000 C   0  0  0  0  0  0  0  0  0  0  0  0
    1.5342   -9.4474    0.0000 C   0  0  0  0  0  0  0  0  0  0  0  0
    1.3774  -10.9392    0.0000 C   0  0  0  0  0  0  0  0  0  0  0  0
    2.5910  -11.8209    0.0000 O   0  0  0  0  0  0  0  0  0  0  0  0
    0.0071  -11.5493    0.0000 N   0  0  0  0  0  0  0  0  0  0  0  0
   -0.1497  -13.0411    0.0000 C   0  0  0  0  0  0  0  0  0  0  0  0
   -1.5200  -13.6512    0.0000 C   0  0  0  0  0  0  0  0  0  0  0  0
   -1.6768  -15.1430    0.0000 C   0  0  0  0  0  0  0  0  0  0  0  0
   -3.0471  -15.7531    0.0000 N   0  0  0  0  0  0  0  0  0  0  0  0
   -4.2606  -14.8714    0.0000 C   0  0  0  0  0  0  0  0  0  0  0  0
   -5.6309  -15.4815    0.0000 C   0  0  0  0  0  0  0  0  0  0  0  0
   -5.7877  -16.9733    0.0000 C   0  0  0  0  0  0  0  0  0  0  0  0
   -4.5742  -17.8550    0.0000 C   0  0  0  0  0  0  0  0  0  0  0  0
   -4.7310  -19.3468    0.0000 O   0  0  0  0  0  0  0  0  0  0  0  0
   -3.2039  -17.2449    0.0000 C   0  0  0  0  0  0  0  0  0  0  0  0
   -1.9904  -18.1266    0.0000 O   0  0  0  0  0  0  0  0  0  0  0  0
    2.9046   -8.8373    0.0000 C   0  0  0  0  0  0  0  0  0  0  0  0
    4.1181   -9.7190    0.0000 F   0  0  0  0  0  0  0  0  0  0  0  0
    3.0613   -7.3456    0.0000 C   0  0  0  0  0  0  0  0  0  0  0  0
  1  2  1  0
  2  3  1  0
  2  4  1  0
  4  5  2  0
  4  6  1  0
  6  7  1  0
  7  8  2  0
  8  9  1  0
  9 10  2  0
 10 11  1  0
 11 12  3  0
 10 13  1  0
 13 14  1  0
 14 15  1  0
 14 16  1  0
 14 17  1  0
 13 18  2  0
  6 19  1  0
 19 20  2  0
 19 21  1  0
 21 22  1  0
 22 23  2  0
 23 24  1  0
 24 25  2  0
 25 26  1  0
 26 27  2  0
 26 28  1  0
 28 29  1  0
 29 30  1  0
 30 31  1  0
 31 32  1  0
 32 33  1  0
 33 34  2  0
 34 35  1  0
 35 36  2  0
 36 37  1  0
 36 38  1  0
 38 39  2  0
 25 40  1  0
 40 41  1  0
 40 42  2  0
 21  2  1  0
 42 22  1  0
 18  7  1  0
 38 32  1  0
M  END
>  <assay_chembl_id>  (586) 
CHEMBL3863626

>  <assay_description>  (586) 
Displacement of [3H]mibolerone from androgen receptor (unknown origin) in membranes after 24 hrs by HAP adsorption assay

>  <parent_molecule_chembl_id>  (586) 
CHEMBL3982650

>  <canonical_smiles>  (586) 
CC1(C)C(=O)N(c2ccc(C#N)c(C(F)(F)F)c2)C(=S)N1c1ccc(C(=O)NCCCn2cccc(O)c2=O)c(F)c1

>  <standard_type>  (586) 
IC50

>  <standard_relation>  (586) 
=

>  <standard_value>  (586) 
560.0

>  <standard_units>  (586) 
nM

>  <target_pref_name>  (586) 
Androgen Receptor

>  <target_chembl_id>  (586) 
CHEMBL1871

>  <target_organism>  (586) 
Homo sapiens

>  <pchembl_median>  (586) 
4.96

$$$$
CHEMBL3912767
     RDKit          2D

 45 48  0  0  0  0  0  0  0  0999 V2000
    4.7302   -3.7586    0.0000 C   0  0  0  0  0  0  0  0  0  0  0  0
    3.3037   -4.2221    0.0000 C   0  0  0  0  0  0  0  0  0  0  0  0
    3.9138   -5.5924    0.0000 C   0  0  0  0  0  0  0  0  0  0  0  0
    2.9918   -2.7549    0.0000 C   0  0  0  0  0  0  0  0  0  0  0  0
    3.9955   -1.6402    0.0000 O   0  0  0  0  0  0  0  0  0  0  0  0
    1.5000   -2.5981    0.0000 N   0  0  0  0  0  0  0  0  0  0  0  0
    0.7500   -1.2990    0.0000 C   0  0  0  0  0  0  0  0  0  0  0  0
    1.5000    0.0000    0.0000 C   0  0  0  0  0  0  0  0  0  0  0  0
    0.7500    1.2990    0.0000 C   0  0  0  0  0  0  0  0  0  0  0  0
   -0.7500    1.2990    0.0000 C   0  0  0  0  0  0  0  0  0  0  0  0
   -1.5000    2.5981    0.0000 C   0  0  0  0  0  0  0  0  0  0  0  0
   -2.2500    3.8971    0.0000 N   0  0  0  0  0  0  0  0  0  0  0  0
   -1.5000    0.0000    0.0000 C   0  0  0  0  0  0  0  0  0  0  0  0
   -3.0000    0.0000    0.0000 C   0  0  0  0  0  0  0  0  0  0  0  0
   -4.5000    0.0000    0.0000 F   0  0  0  0  0  0  0  0  0  0  0  0
   -3.0000   -1.5000    0.0000 F   0  0  0  0  0  0  0  0  0  0  0  0
   -3.0000    1.5000    0.0000 F   0  0  0  0  0  0  0  0  0  0  0  0
   -0.7500   -1.2990    0.0000 C   0  0  0  0  0  0  0  0  0  0  0  0
    0.8899   -3.9684    0.0000 C   0  0  0  0  0  0  0  0  0  0  0  0
   -0.5773   -4.2803    0.0000 S   0  0  0  0  0  0  0  0  0  0  0  0
    2.0046   -4.9721    0.0000 N   0  0  0  0  0  0  0  0  0  0  0  0
    1.8478   -6.4639    0.0000 C   0  0  0  0  0  0  0  0  0  0  0  0
    0.4775   -7.0740    0.0000 C   0  0  0  0  0  0  0  0  0  0  0  0
    0.3207   -8.5658    0.0000 C   0  0  0  0  0  0  0  0  0  0  0  0
    1.5342   -9.4474    0.0000 C   0  0  0  0  0  0  0  0  0  0  0  0
    1.3774  -10.9392    0.0000 C   0  0  0  0  0  0  0  0  0  0  0  0
    2.5910  -11.8209    0.0000 O   0  0  0  0  0  0  0  0  0  0  0  0
    0.0071  -11.5493    0.0000 N   0  0  0  0  0  0  0  0  0  0  0  0
   -0.1497  -13.0411    0.0000 C   0  0  0  0  0  0  0  0  0  0  0  0
   -1.5200  -13.6512    0.0000 C   0  0  0  0  0  0  0  0  0  0  0  0
   -1.6768  -15.1430    0.0000 C   0  0  0  0  0  0  0  0  0  0  0  0
   -3.0471  -15.7531    0.0000 C   0  0  0  0  0  0  0  0  0  0  0  0
   -3.2039  -17.2449    0.0000 C   0  0  0  0  0  0  0  0  0  0  0  0
   -4.5742  -17.8550    0.0000 C   0  0  0  0  0  0  0  0  0  0  0  0
   -4.7310  -19.3468    0.0000 N   0  0  0  0  0  0  0  0  0  0  0  0
   -6.1013  -19.9569    0.0000 C   0  0  0  0  0  0  0  0  0  0  0  0
   -6.2581  -21.4487    0.0000 C   0  0  0  0  0  0  0  0  0  0  0  0
   -5.0446  -22.3303    0.0000 C   0  0  0  0  0  0  0  0  0  0  0  0
   -3.6743  -21.7202    0.0000 C   0  0  0  0  0  0  0  0  0  0  0  0
   -2.4607  -22.6019    0.0000 O   0  0  0  0  0  0  0  0  0  0  0  0
   -3.5175  -20.2285    0.0000 C   0  0  0  0  0  0  0  0  0  0  0  0
   -2.1472  -19.6183    0.0000 O   0  0  0  0  0  0  0  0  0  0  0  0
    2.9046   -8.8373    0.0000 C   0  0  0  0  0  0  0  0  0  0  0  0
    4.1181   -9.7190    0.0000 F   0  0  0  0  0  0  0  0  0  0  0  0
    3.0613   -7.3456    0.0000 C   0  0  0  0  0  0  0  0  0  0  0  0
  1  2  1  0
  2  3  1  0
  2  4  1  0
  4  5  2  0
  4  6  1  0
  6  7  1  0
  7  8  2  0
  8  9  1  0
  9 10  2  0
 10 11  1  0
 11 12  3  0
 10 13  1  0
 13 14  1  0
 14 15  1  0
 14 16  1  0
 14 17  1  0
 13 18  2  0
  6 19  1  0
 19 20  2  0
 19 21  1  0
 21 22  1  0
 22 23  2  0
 23 24  1  0
 24 25  2  0
 25 26  1  0
 26 27  2  0
 26 28  1  0
 28 29  1  0
 29 30  1  0
 30 31  1  0
 31 32  1  0
 32 33  1  0
 33 34  1  0
 34 35  1  0
 35 36  1  0
 36 37  2  0
 37 38  1  0
 38 39  2  0
 39 40  1  0
 39 41  1  0
 41 42  2  0
 25 43  1  0
 43 44  1  0
 43 45  2  0
 21  2  1  0
 45 22  1  0
 18  7  1  0
 41 35  1  0
M  END
>  <assay_chembl_id>  (587) 
CHEMBL3863626

>  <assay_description>  (587) 
Displacement of [3H]mibolerone from androgen receptor (unknown origin) in membranes after 24 hrs by HAP adsorption assay

>  <parent_molecule_chembl_id>  (587) 
CHEMBL3912767

>  <canonical_smiles>  (587) 
CC1(C)C(=O)N(c2ccc(C#N)c(C(F)(F)F)c2)C(=S)N1c1ccc(C(=O)NCCCCCCn2cccc(O)c2=O)c(F)c1

>  <standard_type>  (587) 
IC50

>  <standard_relation>  (587) 
=

>  <standard_value>  (587) 
250.0

>  <standard_units>  (587) 
nM

>  <target_pref_name>  (587) 
Androgen Receptor

>  <target_chembl_id>  (587) 
CHEMBL1871

>  <target_organism>  (587) 
Homo sapiens

>  <pchembl_median>  (587) 
8.15

$$$$
CHEMBL3908221
     RDKit          2D

 48 51  0  0  0  0  0  0  0  0999 V2000
    4.7302   -3.7586    0.0000 C   0  0  0  0  0  0  0  0  0  0  0  0
    3.3037   -4.2221    0.0000 C   0  0  0  0  0  0  0  0  0  0  0  0
    3.9138   -5.5924    0.0000 C   0  0  0  0  0  0  0  0  0  0  0  0
    2.9918   -2.7549    0.0000 C   0  0  0  0  0  0  0  0  0  0  0  0
    3.9955   -1.6402    0.0000 O   0  0  0  0  0  0  0  0  0  0  0  0
    1.5000   -2.5981    0.0000 N   0  0  0  0  0  0  0  0  0  0  0  0
    0.7500   -1.2990    0.0000 C   0  0  0  0  0  0  0  0  0  0  0  0
    1.5000    0.0000    0.0000 C   0  0  0  0  0  0  0  0  0  0  0  0
    0.7500    1.2990    0.0000 C   0  0  0  0  0  0  0  0  0  0  0  0
   -0.7500    1.2990    0.0000 C   0  0  0  0  0  0  0  0  0  0  0  0
   -1.5000    2.5981    0.0000 C   0  0  0  0  0  0  0  0  0  0  0  0
   -2.2500    3.8971    0.0000 N   0  0  0  0  0  0  0  0  0  0  0  0
   -1.5000    0.0000    0.0000 C   0  0  0  0  0  0  0  0  0  0  0  0
   -3.0000    0.0000    0.0000 C   0  0  0  0  0  0  0  0  0  0  0  0
   -4.5000    0.0000    0.0000 F   0  0  0  0  0  0  0  0  0  0  0  0
   -3.0000   -1.5000    0.0000 F   0  0  0  0  0  0  0  0  0  0  0  0
   -3.0000    1.5000    0.0000 F   0  0  0  0  0  0  0  0  0  0  0  0
   -0.7500   -1.2990    0.0000 C   0  0  0  0  0  0  0  0  0  0  0  0
    0.8899   -3.9684    0.0000 C   0  0  0  0  0  0  0  0  0  0  0  0
   -0.5773   -4.2803    0.0000 S   0  0  0  0  0  0  0  0  0  0  0  0
    2.0046   -4.9721    0.0000 N   0  0  0  0  0  0  0  0  0  0  0  0
    1.8478   -6.4639    0.0000 C   0  0  0  0  0  0  0  0  0  0  0  0
    0.4775   -7.0740    0.0000 C   0  0  0  0  0  0  0  0  0  0  0  0
    0.3207   -8.5658    0.0000 C   0  0  0  0  0  0  0  0  0  0  0  0
    1.5342   -9.4474    0.0000 C   0  0  0  0  0  0  0  0  0  0  0  0
    1.3774  -10.9392    0.0000 C   0  0  0  0  0  0  0  0  0  0  0  0
    2.5910  -11.8209    0.0000 O   0  0  0  0  0  0  0  0  0  0  0  0
    0.0071  -11.5493    0.0000 N   0  0  0  0  0  0  0  0  0  0  0  0
   -0.1497  -13.0411    0.0000 C   0  0  0  0  0  0  0  0  0  0  0  0
   -1.5200  -13.6512    0.0000 C   0  0  0  0  0  0  0  0  0  0  0  0
   -1.6768  -15.1430    0.0000 C   0  0  0  0  0  0  0  0  0  0  0  0
   -3.0471  -15.7531    0.0000 C   0  0  0  0  0  0  0  0  0  0  0  0
   -3.2039  -17.2449    0.0000 C   0  0  0  0  0  0  0  0  0  0  0  0
   -4.5742  -17.8550    0.0000 C   0  0  0  0  0  0  0  0  0  0  0  0
   -4.7310  -19.3468    0.0000 C   0  0  0  0  0  0  0  0  0  0  0  0
   -3.6163  -20.3505    0.0000 C   0  0  0  0  0  0  0  0  0  0  0  0
   -4.2264  -21.7208    0.0000 C   0  0  0  0  0  0  0  0  0  0  0  0
   -5.7182  -21.5640    0.0000 C   0  0  0  0  0  0  0  0  0  0  0  0
   -6.7219  -22.6787    0.0000 C   0  0  0  0  0  0  0  0  0  0  0  0
   -6.2583  -24.1053    0.0000 O   0  0  0  0  0  0  0  0  0  0  0  0
   -8.1891  -22.3668    0.0000 C   0  0  0  0  0  0  0  0  0  0  0  0
   -9.6563  -22.0550    0.0000 F   0  0  0  0  0  0  0  0  0  0  0  0
   -8.5010  -23.8341    0.0000 F   0  0  0  0  0  0  0  0  0  0  0  0
   -7.8772  -20.8996    0.0000 F   0  0  0  0  0  0  0  0  0  0  0  0
   -6.0300  -20.0968    0.0000 S   0  0  0  0  0  0  0  0  0  0  0  0
    2.9046   -8.8373    0.0000 C   0  0  0  0  0  0  0  0  0  0  0  0
    4.1181   -9.7190    0.0000 F   0  0  0  0  0  0  0  0  0  0  0  0
    3.0613   -7.3456    0.0000 C   0  0  0  0  0  0  0  0  0  0  0  0
  1  2  1  0
  2  3  1  0
  2  4  1  0
  4  5  2  0
  4  6  1  0
  6  7  1  0
  7  8  2  0
  8  9  1  0
  9 10  2  0
 10 11  1  0
 11 12  3  0
 10 13  1  0
 13 14  1  0
 14 15  1  0
 14 16  1  0
 14 17  1  0
 13 18  2  0
  6 19  1  0
 19 20  2  0
 19 21  1  0
 21 22  1  0
 22 23  2  0
 23 24  1  0
 24 25  2  0
 25 26  1  0
 26 27  2  0
 26 28  1  0
 28 29  1  0
 29 30  1  0
 30 31  1  0
 31 32  1  0
 32 33  1  0
 33 34  1  0
 34 35  1  0
 35 36  2  0
 36 37  1  0
 37 38  2  0
 38 39  1  0
 39 40  2  0
 39 41  1  0
 41 42  1  0
 41 43  1  0
 41 44  1  0
 38 45  1  0
 25 46  1  0
 46 47  1  0
 46 48  2  0
 21  2  1  0
 48 22  1  0
 18  7  1  0
 45 35  1  0
M  END
>  <assay_chembl_id>  (588) 
CHEMBL3863626

>  <assay_description>  (588) 
Displacement of [3H]mibolerone from androgen receptor (unknown origin) in membranes after 24 hrs by HAP adsorption assay

>  <parent_molecule_chembl_id>  (588) 
CHEMBL3908221

>  <canonical_smiles>  (588) 
CC1(C)C(=O)N(c2ccc(C#N)c(C(F)(F)F)c2)C(=S)N1c1ccc(C(=O)NCCCCCCc2ccc(C(=O)C(F)(F)F)s2)c(F)c1

>  <standard_type>  (588) 
IC50

>  <standard_relation>  (588) 
=

>  <standard_value>  (588) 
68.0

>  <standard_units>  (588) 
nM

>  <target_pref_name>  (588) 
Androgen Receptor

>  <target_chembl_id>  (588) 
CHEMBL1871

>  <target_organism>  (588) 
Homo sapiens

>  <pchembl_median>  (588) 
7.17

$$$$
CHEMBL3902310
     RDKit          2D

 29 32  0  0  0  0  0  0  0  0999 V2000
    0.5218    4.5000    0.0000 C   0  0  0  0  0  0  0  0  0  0  0  0
    0.5218    3.0000    0.0000 N   0  0  0  0  0  0  0  0  0  0  0  0
    1.8209    2.2500    0.0000 C   0  0  0  0  0  0  0  0  0  0  0  0
    2.4575    2.7298    0.0000 O   0  0  0  0  0  0  0  0  0  0  0  0
    1.8209    0.7500    0.0000 C   0  0  0  0  0  0  0  0  0  0  0  0
    0.3943    1.2135    0.0000 C   0  0  0  0  0  0  0  0  0  0  0  0
    1.2760    0.0000    0.0000 C   0  0  0  0  0  0  0  0  0  0  0  0
    0.3943   -1.2135    0.0000 C   0  0  0  0  0  0  0  0  0  0  0  0
   -1.0323   -0.7500    0.0000 C   0  0  0  0  0  0  0  0  0  0  0  0
   -1.0323    0.7500    0.0000 C   0  0  0  0  0  0  0  0  0  0  0  0
   -2.2458    1.6317    0.0000 F   0  0  0  0  0  0  0  0  0  0  0  0
    1.8209   -0.7500    0.0000 C   0  0  0  0  0  0  0  0  0  0  0  0
    3.2475   -1.2135    0.0000 C   0  0  0  0  0  0  0  0  0  0  0  0
    4.1291    0.0000    0.0000 N   0  0  0  0  0  0  0  0  0  0  0  0
    5.6291    0.0000    0.0000 C   0  0  0  0  0  0  0  0  0  0  0  0
    6.3791   -1.2990    0.0000 C   0  0  0  0  0  0  0  0  0  0  0  0
    7.8791   -1.2990    0.0000 C   0  0  0  0  0  0  0  0  0  0  0  0
    8.6291    0.0000    0.0000 C   0  0  0  0  0  0  0  0  0  0  0  0
   10.1291    0.0000    0.0000 C   0  0  0  0  0  0  0  0  0  0  0  0
   11.6291   -0.0000    0.0000 N   0  0  0  0  0  0  0  0  0  0  0  0
    7.8791    1.2990    0.0000 C   0  0  0  0  0  0  0  0  0  0  0  0
    8.6291    2.5981    0.0000 C   0  0  0  0  0  0  0  0  0  0  0  0
    9.3791    3.8971    0.0000 F   0  0  0  0  0  0  0  0  0  0  0  0
    7.3301    3.3481    0.0000 F   0  0  0  0  0  0  0  0  0  0  0  0
    9.9282    1.8481    0.0000 F   0  0  0  0  0  0  0  0  0  0  0  0
    6.3791    1.2990    0.0000 C   0  0  0  0  0  0  0  0  0  0  0  0
    3.2475    1.2135    0.0000 S   0  0  0  0  0  0  0  0  0  0  0  0
    4.5465    1.9635    0.0000 O   0  0  0  0  0  0  0  0  0  0  0  0
    3.0144    1.9759    0.0000 O   0  0  0  0  0  0  0  0  0  0  0  0
  1  2  1  0
  2  3  1  0
  3  4  2  0
  5  3  1  6
  5  6  1  0
  6  7  1  6
  7  8  1  0
  8  9  1  1
  9 10  1  0
 10 11  1  6
  8 12  1  0
 12 13  1  1
 13 14  1  0
 14 15  1  0
 15 16  2  0
 16 17  1  0
 17 18  2  0
 18 19  1  0
 19 20  3  0
 18 21  1  0
 21 22  1  0
 22 23  1  0
 22 24  1  0
 22 25  1  0
 21 26  2  0
 14 27  1  0
 27 28  2  0
 27 29  2  0
 12  5  1  0
 26 15  1  0
 27  5  1  0
 10  6  1  0
M  END
>  <assay_chembl_id>  (589) 
CHEMBL3869526

>  <assay_description>  (589) 
Antagonist activity at androgen receptor in human MDA-MB-453 cells assessed as inhibition of testosterone-induced transactivation

>  <parent_molecule_chembl_id>  (589) 
CHEMBL3902310

>  <canonical_smiles>  (589) 
CNC(=O)[C@@]12[C@H]3C[C@H](C[C@@H]3F)[C@@H]1CN(c1ccc(C#N)c(C(F)(F)F)c1)S2(=O)=O

>  <standard_type>  (589) 
IC50

>  <standard_relation>  (589) 
=

>  <standard_value>  (589) 
57.0

>  <standard_units>  (589) 
nM

>  <target_pref_name>  (589) 
Androgen Receptor

>  <target_chembl_id>  (589) 
CHEMBL1871

>  <target_organism>  (589) 
Homo sapiens

>  <pchembl_median>  (589) 
6.78

$$$$
CHEMBL3921315
     RDKit          2D

 28 31  0  0  0  0  0  0  0  0999 V2000
    2.2229    3.9473    0.0000 C   0  0  0  0  0  0  0  0  0  0  0  0
    1.3412    2.7338    0.0000 N   0  0  0  0  0  0  0  0  0  0  0  0
   -0.1506    2.8906    0.0000 C   0  0  0  0  0  0  0  0  0  0  0  0
   -0.3837    3.6529    0.0000 O   0  0  0  0  0  0  0  0  0  0  0  0
   -1.0323    1.6771    0.0000 C   0  0  0  0  0  0  0  0  0  0  0  0
    0.3943    1.2135    0.0000 C   0  0  0  0  0  0  0  0  0  0  0  0
    1.2760    0.0000    0.0000 C   0  0  0  0  0  0  0  0  0  0  0  0
    0.3943   -1.2135    0.0000 C   0  0  0  0  0  0  0  0  0  0  0  0
   -1.0323   -0.7500    0.0000 C   0  0  0  0  0  0  0  0  0  0  0  0
   -1.0323    0.7500    0.0000 C   0  0  0  0  0  0  0  0  0  0  0  0
   -1.9140    0.4635    0.0000 C   0  0  0  0  0  0  0  0  0  0  0  0
   -3.3405    0.9271    0.0000 C   0  0  0  0  0  0  0  0  0  0  0  0
   -3.3405    2.4271    0.0000 N   0  0  0  0  0  0  0  0  0  0  0  0
   -4.5541    3.3087    0.0000 C   0  0  0  0  0  0  0  0  0  0  0  0
   -4.3973    4.8005    0.0000 C   0  0  0  0  0  0  0  0  0  0  0  0
   -5.6108    5.6822    0.0000 C   0  0  0  0  0  0  0  0  0  0  0  0
   -6.9811    5.0721    0.0000 C   0  0  0  0  0  0  0  0  0  0  0  0
   -8.1947    5.9538    0.0000 C   0  0  0  0  0  0  0  0  0  0  0  0
   -9.4082    6.8354    0.0000 N   0  0  0  0  0  0  0  0  0  0  0  0
   -7.1379    3.5803    0.0000 C   0  0  0  0  0  0  0  0  0  0  0  0
   -8.5082    2.9702    0.0000 C   0  0  0  0  0  0  0  0  0  0  0  0
   -9.8786    2.3601    0.0000 F   0  0  0  0  0  0  0  0  0  0  0  0
   -7.8981    1.5999    0.0000 F   0  0  0  0  0  0  0  0  0  0  0  0
   -9.1183    4.3405    0.0000 F   0  0  0  0  0  0  0  0  0  0  0  0
   -5.9244    2.6986    0.0000 C   0  0  0  0  0  0  0  0  0  0  0  0
   -1.9140    2.8906    0.0000 S   0  0  0  0  0  0  0  0  0  0  0  0
   -2.5241    4.2609    0.0000 O   0  0  0  0  0  0  0  0  0  0  0  0
   -1.2773    3.3703    0.0000 O   0  0  0  0  0  0  0  0  0  0  0  0
  1  2  1  0
  2  3  1  0
  3  4  2  0
  5  3  1  1
  5  6  1  0
  6  7  1  6
  7  8  1  0
  9  8  1  6
  9 10  1  0
  9 11  1  0
 11 12  1  6
 12 13  1  0
 13 14  1  0
 14 15  2  0
 15 16  1  0
 16 17  2  0
 17 18  1  0
 18 19  3  0
 17 20  1  0
 20 21  1  0
 21 22  1  0
 21 23  1  0
 21 24  1  0
 20 25  2  0
 13 26  1  0
 26 27  2  0
 26 28  2  0
 11  5  1  0
 25 14  1  0
 26  5  1  0
 10  6  1  0
M  END
>  <assay_chembl_id>  (590) 
CHEMBL3869526

>  <assay_description>  (590) 
Antagonist activity at androgen receptor in human MDA-MB-453 cells assessed as inhibition of testosterone-induced transactivation

>  <parent_molecule_chembl_id>  (590) 
CHEMBL3921315

>  <canonical_smiles>  (590) 
CNC(=O)[C@@]12[C@@H]3CC[C@@H](C3)[C@@H]1CN(c1ccc(C#N)c(C(F)(F)F)c1)S2(=O)=O

>  <standard_type>  (590) 
IC50

>  <standard_relation>  (590) 
=

>  <standard_value>  (590) 
44.0

>  <standard_units>  (590) 
nM

>  <target_pref_name>  (590) 
Androgen Receptor

>  <target_chembl_id>  (590) 
CHEMBL1871

>  <target_organism>  (590) 
Homo sapiens

>  <pchembl_median>  (590) 
6.32

$$$$
CHEMBL3893320
     RDKit          2D

 27 30  0  0  0  0  0  0  0  0999 V2000
   -9.4082    6.8354    0.0000 N   0  0  0  0  0  0  0  0  0  0  0  0
   -8.1947    5.9538    0.0000 C   0  0  0  0  0  0  0  0  0  0  0  0
   -6.9811    5.0721    0.0000 C   0  0  0  0  0  0  0  0  0  0  0  0
   -5.6108    5.6822    0.0000 C   0  0  0  0  0  0  0  0  0  0  0  0
   -4.3973    4.8005    0.0000 C   0  0  0  0  0  0  0  0  0  0  0  0
   -4.5541    3.3087    0.0000 C   0  0  0  0  0  0  0  0  0  0  0  0
   -3.3405    2.4271    0.0000 N   0  0  0  0  0  0  0  0  0  0  0  0
   -1.9140    2.8906    0.0000 C   0  0  0  0  0  0  0  0  0  0  0  0
   -1.0323    1.6771    0.0000 C   0  0  0  0  0  0  0  0  0  0  0  0
    0.3943    1.2135    0.0000 C   0  0  0  0  0  0  0  0  0  0  0  0
    1.2760    0.0000    0.0000 C   0  0  0  0  0  0  0  0  0  0  0  0
    0.3943   -1.2135    0.0000 C   0  0  0  0  0  0  0  0  0  0  0  0
   -1.0323   -0.7500    0.0000 C   0  0  0  0  0  0  0  0  0  0  0  0
   -1.0323    0.7500    0.0000 C   0  0  0  0  0  0  0  0  0  0  0  0
   -1.9140    0.4635    0.0000 C   0  0  0  0  0  0  0  0  0  0  0  0
   -2.7956   -0.7500    0.0000 C   0  0  0  0  0  0  0  0  0  0  0  0
   -3.5927   -0.7639    0.0000 N   0  0  0  0  0  0  0  0  0  0  0  0
   -2.1855   -2.1203    0.0000 O   0  0  0  0  0  0  0  0  0  0  0  0
   -3.3405    0.9271    0.0000 S   0  0  0  0  0  0  0  0  0  0  0  0
   -3.6001    0.1733    0.0000 O   0  0  0  0  0  0  0  0  0  0  0  0
   -4.8323    1.0838    0.0000 O   0  0  0  0  0  0  0  0  0  0  0  0
   -5.9244    2.6986    0.0000 C   0  0  0  0  0  0  0  0  0  0  0  0
   -7.1379    3.5803    0.0000 C   0  0  0  0  0  0  0  0  0  0  0  0
   -8.5082    2.9702    0.0000 C   0  0  0  0  0  0  0  0  0  0  0  0
   -9.8786    2.3601    0.0000 F   0  0  0  0  0  0  0  0  0  0  0  0
   -7.8981    1.5999    0.0000 F   0  0  0  0  0  0  0  0  0  0  0  0
   -9.1183    4.3405    0.0000 F   0  0  0  0  0  0  0  0  0  0  0  0
  1  2  3  0
  2  3  1  0
  3  4  2  0
  4  5  1  0
  5  6  2  0
  6  7  1  0
  7  8  1  0
  9  8  1  1
  9 10  1  0
 10 11  1  1
 11 12  1  0
 13 12  1  1
 13 14  1  0
 13 15  1  0
 15 16  1  6
 16 17  1  0
 16 18  2  0
 15 19  1  0
 19 20  2  0
 19 21  2  0
  6 22  1  0
 22 23  2  0
 23 24  1  0
 24 25  1  0
 24 26  1  0
 24 27  1  0
 23  3  1  0
 19  7  1  0
 15  9  1  0
 14 10  1  0
M  END
>  <assay_chembl_id>  (591) 
CHEMBL3869526

>  <assay_description>  (591) 
Antagonist activity at androgen receptor in human MDA-MB-453 cells assessed as inhibition of testosterone-induced transactivation

>  <parent_molecule_chembl_id>  (591) 
CHEMBL3893320

>  <canonical_smiles>  (591) 
N#Cc1ccc(N2C[C@H]3[C@H]4CC[C@H](C4)[C@@]3(C(N)=O)S2(=O)=O)cc1C(F)(F)F

>  <standard_type>  (591) 
IC50

>  <standard_relation>  (591) 
=

>  <standard_value>  (591) 
55.0

>  <standard_units>  (591) 
nM

>  <target_pref_name>  (591) 
Androgen Receptor

>  <target_chembl_id>  (591) 
CHEMBL1871

>  <target_organism>  (591) 
Homo sapiens

>  <pchembl_median>  (591) 
5.13

$$$$
CHEMBL3949176
     RDKit          2D

 26 29  0  0  0  0  0  0  0  0999 V2000
    1.8209    2.2500    0.0000 C   0  0  0  0  0  0  0  0  0  0  0  0
    1.8209    0.7500    0.0000 C   0  0  0  0  0  0  0  0  0  0  0  0
    0.3943    1.2135    0.0000 C   0  0  0  0  0  0  0  0  0  0  0  0
    1.2760    0.0000    0.0000 C   0  0  0  0  0  0  0  0  0  0  0  0
    0.3943   -1.2135    0.0000 C   0  0  0  0  0  0  0  0  0  0  0  0
   -1.0323   -0.7500    0.0000 C   0  0  0  0  0  0  0  0  0  0  0  0
   -1.0323    0.7500    0.0000 C   0  0  0  0  0  0  0  0  0  0  0  0
   -2.2458    1.6317    0.0000 F   0  0  0  0  0  0  0  0  0  0  0  0
    1.8209   -0.7500    0.0000 C   0  0  0  0  0  0  0  0  0  0  0  0
    3.2475   -1.2135    0.0000 C   0  0  0  0  0  0  0  0  0  0  0  0
    4.1291    0.0000    0.0000 N   0  0  0  0  0  0  0  0  0  0  0  0
    5.6291    0.0000    0.0000 C   0  0  0  0  0  0  0  0  0  0  0  0
    6.3791   -1.2990    0.0000 C   0  0  0  0  0  0  0  0  0  0  0  0
    7.8791   -1.2990    0.0000 C   0  0  0  0  0  0  0  0  0  0  0  0
    8.6291    0.0000    0.0000 C   0  0  0  0  0  0  0  0  0  0  0  0
   10.1291    0.0000    0.0000 C   0  0  0  0  0  0  0  0  0  0  0  0
   11.6291   -0.0000    0.0000 N   0  0  0  0  0  0  0  0  0  0  0  0
    7.8791    1.2990    0.0000 C   0  0  0  0  0  0  0  0  0  0  0  0
    8.6291    2.5981    0.0000 C   0  0  0  0  0  0  0  0  0  0  0  0
    9.3791    3.8971    0.0000 F   0  0  0  0  0  0  0  0  0  0  0  0
    7.3301    3.3481    0.0000 F   0  0  0  0  0  0  0  0  0  0  0  0
    9.9282    1.8481    0.0000 F   0  0  0  0  0  0  0  0  0  0  0  0
    6.3791    1.2990    0.0000 C   0  0  0  0  0  0  0  0  0  0  0  0
    3.2475    1.2135    0.0000 S   0  0  0  0  0  0  0  0  0  0  0  0
    4.5465    1.9635    0.0000 O   0  0  0  0  0  0  0  0  0  0  0  0
    2.6374    2.5838    0.0000 O   0  0  0  0  0  0  0  0  0  0  0  0
  2  1  1  6
  2  3  1  0
  3  4  1  6
  4  5  1  0
  5  6  1  1
  6  7  1  0
  7  8  1  6
  5  9  1  0
  9 10  1  1
 10 11  1  0
 11 12  1  0
 12 13  2  0
 13 14  1  0
 14 15  2  0
 15 16  1  0
 16 17  3  0
 15 18  1  0
 18 19  1  0
 19 20  1  0
 19 21  1  0
 19 22  1  0
 18 23  2  0
 11 24  1  0
 24 25  2  0
 24 26  2  0
  9  2  1  0
 23 12  1  0
 24  2  1  0
  7  3  1  0
M  END
>  <assay_chembl_id>  (592) 
CHEMBL3869526

>  <assay_description>  (592) 
Antagonist activity at androgen receptor in human MDA-MB-453 cells assessed as inhibition of testosterone-induced transactivation

>  <parent_molecule_chembl_id>  (592) 
CHEMBL3949176

>  <canonical_smiles>  (592) 
C[C@@]12[C@H]3C[C@H](C[C@@H]3F)[C@@H]1CN(c1ccc(C#N)c(C(F)(F)F)c1)S2(=O)=O

>  <standard_type>  (592) 
IC50

>  <standard_relation>  (592) 
=

>  <standard_value>  (592) 
91.0

>  <standard_units>  (592) 
nM

>  <target_pref_name>  (592) 
Androgen Receptor

>  <target_chembl_id>  (592) 
CHEMBL1871

>  <target_organism>  (592) 
Homo sapiens

>  <pchembl_median>  (592) 
6.89

$$$$
CHEMBL3920247
     RDKit          2D

 26 29  0  0  0  0  0  0  0  0999 V2000
    1.8209    2.2500    0.0000 C   0  0  0  0  0  0  0  0  0  0  0  0
    1.8209    0.7500    0.0000 C   0  0  0  0  0  0  0  0  0  0  0  0
    0.3943    1.2135    0.0000 C   0  0  0  0  0  0  0  0  0  0  0  0
    1.2760    0.0000    0.0000 C   0  0  0  0  0  0  0  0  0  0  0  0
    0.3943   -1.2135    0.0000 C   0  0  0  0  0  0  0  0  0  0  0  0
   -1.0323   -0.7500    0.0000 C   0  0  0  0  0  0  0  0  0  0  0  0
   -1.0323    0.7500    0.0000 C   0  0  0  0  0  0  0  0  0  0  0  0
   -2.2458    1.6317    0.0000 O   0  0  0  0  0  0  0  0  0  0  0  0
    1.8209   -0.7500    0.0000 C   0  0  0  0  0  0  0  0  0  0  0  0
    3.2475   -1.2135    0.0000 C   0  0  0  0  0  0  0  0  0  0  0  0
    4.1291    0.0000    0.0000 N   0  0  0  0  0  0  0  0  0  0  0  0
    5.6291    0.0000    0.0000 C   0  0  0  0  0  0  0  0  0  0  0  0
    6.3791   -1.2990    0.0000 C   0  0  0  0  0  0  0  0  0  0  0  0
    7.8791   -1.2990    0.0000 C   0  0  0  0  0  0  0  0  0  0  0  0
    8.6291    0.0000    0.0000 C   0  0  0  0  0  0  0  0  0  0  0  0
   10.1291    0.0000    0.0000 C   0  0  0  0  0  0  0  0  0  0  0  0
   11.6291   -0.0000    0.0000 N   0  0  0  0  0  0  0  0  0  0  0  0
    7.8791    1.2990    0.0000 C   0  0  0  0  0  0  0  0  0  0  0  0
    8.6291    2.5981    0.0000 C   0  0  0  0  0  0  0  0  0  0  0  0
    9.3791    3.8971    0.0000 F   0  0  0  0  0  0  0  0  0  0  0  0
    7.3301    3.3481    0.0000 F   0  0  0  0  0  0  0  0  0  0  0  0
    9.9282    1.8481    0.0000 F   0  0  0  0  0  0  0  0  0  0  0  0
    6.3791    1.2990    0.0000 C   0  0  0  0  0  0  0  0  0  0  0  0
    3.2475    1.2135    0.0000 S   0  0  0  0  0  0  0  0  0  0  0  0
    4.5465    1.9635    0.0000 O   0  0  0  0  0  0  0  0  0  0  0  0
    2.6374    2.5838    0.0000 O   0  0  0  0  0  0  0  0  0  0  0  0
  2  1  1  6
  2  3  1  0
  3  4  1  6
  4  5  1  0
  5  6  1  1
  6  7  1  0
  7  8  1  6
  5  9  1  0
  9 10  1  1
 10 11  1  0
 11 12  1  0
 12 13  2  0
 13 14  1  0
 14 15  2  0
 15 16  1  0
 16 17  3  0
 15 18  1  0
 18 19  1  0
 19 20  1  0
 19 21  1  0
 19 22  1  0
 18 23  2  0
 11 24  1  0
 24 25  2  0
 24 26  2  0
  9  2  1  0
 23 12  1  0
 24  2  1  0
  7  3  1  0
M  END
>  <assay_chembl_id>  (593) 
CHEMBL3869526

>  <assay_description>  (593) 
Antagonist activity at androgen receptor in human MDA-MB-453 cells assessed as inhibition of testosterone-induced transactivation

>  <parent_molecule_chembl_id>  (593) 
CHEMBL3920247

>  <canonical_smiles>  (593) 
C[C@@]12[C@H]3C[C@H](C[C@@H]3O)[C@@H]1CN(c1ccc(C#N)c(C(F)(F)F)c1)S2(=O)=O

>  <standard_type>  (593) 
IC50

>  <standard_relation>  (593) 
=

>  <standard_value>  (593) 
106.0

>  <standard_units>  (593) 
nM

>  <target_pref_name>  (593) 
Androgen Receptor

>  <target_chembl_id>  (593) 
CHEMBL1871

>  <target_organism>  (593) 
Homo sapiens

>  <pchembl_median>  (593) 
4.46

$$$$
CHEMBL3939272
     RDKit          2D

 26 29  0  0  0  0  0  0  0  0999 V2000
    1.8209    2.2500    0.0000 C   0  0  0  0  0  0  0  0  0  0  0  0
    1.8209    0.7500    0.0000 C   0  0  0  0  0  0  0  0  0  0  0  0
    0.3943    1.2135    0.0000 C   0  0  0  0  0  0  0  0  0  0  0  0
    1.2760    0.0000    0.0000 C   0  0  0  0  0  0  0  0  0  0  0  0
    0.3943   -1.2135    0.0000 C   0  0  0  0  0  0  0  0  0  0  0  0
   -1.0323   -0.7500    0.0000 C   0  0  0  0  0  0  0  0  0  0  0  0
   -2.2458   -1.6317    0.0000 O   0  0  0  0  0  0  0  0  0  0  0  0
   -1.0323    0.7500    0.0000 C   0  0  0  0  0  0  0  0  0  0  0  0
    1.8209   -0.7500    0.0000 C   0  0  0  0  0  0  0  0  0  0  0  0
    3.2475   -1.2135    0.0000 C   0  0  0  0  0  0  0  0  0  0  0  0
    4.1291    0.0000    0.0000 N   0  0  0  0  0  0  0  0  0  0  0  0
    5.6291    0.0000    0.0000 C   0  0  0  0  0  0  0  0  0  0  0  0
    6.3791   -1.2990    0.0000 C   0  0  0  0  0  0  0  0  0  0  0  0
    7.8791   -1.2990    0.0000 C   0  0  0  0  0  0  0  0  0  0  0  0
    8.6291    0.0000    0.0000 C   0  0  0  0  0  0  0  0  0  0  0  0
   10.1291    0.0000    0.0000 C   0  0  0  0  0  0  0  0  0  0  0  0
   11.6291   -0.0000    0.0000 N   0  0  0  0  0  0  0  0  0  0  0  0
    7.8791    1.2990    0.0000 C   0  0  0  0  0  0  0  0  0  0  0  0
    8.6291    2.5981    0.0000 C   0  0  0  0  0  0  0  0  0  0  0  0
    9.3791    3.8971    0.0000 F   0  0  0  0  0  0  0  0  0  0  0  0
    7.3301    3.3481    0.0000 F   0  0  0  0  0  0  0  0  0  0  0  0
    9.9282    1.8481    0.0000 F   0  0  0  0  0  0  0  0  0  0  0  0
    6.3791    1.2990    0.0000 C   0  0  0  0  0  0  0  0  0  0  0  0
    3.2475    1.2135    0.0000 S   0  0  0  0  0  0  0  0  0  0  0  0
    4.5465    1.9635    0.0000 O   0  0  0  0  0  0  0  0  0  0  0  0
    2.6374    2.5838    0.0000 O   0  0  0  0  0  0  0  0  0  0  0  0
  2  1  1  6
  2  3  1  0
  3  4  1  0
  5  4  1  6
  5  6  1  0
  6  7  1  6
  6  8  1  0
  5  9  1  0
  9 10  1  1
 10 11  1  0
 11 12  1  0
 12 13  2  0
 13 14  1  0
 14 15  2  0
 15 16  1  0
 16 17  3  0
 15 18  1  0
 18 19  1  0
 19 20  1  0
 19 21  1  0
 19 22  1  0
 18 23  2  0
 11 24  1  0
 24 25  2  0
 24 26  2  0
  9  2  1  0
 23 12  1  0
 24  2  1  0
  3  8  1  1
M  END
>  <assay_chembl_id>  (594) 
CHEMBL3869526

>  <assay_description>  (594) 
Antagonist activity at androgen receptor in human MDA-MB-453 cells assessed as inhibition of testosterone-induced transactivation

>  <parent_molecule_chembl_id>  (594) 
CHEMBL3939272

>  <canonical_smiles>  (594) 
C[C@@]12[C@H]3C[C@H]([C@H](O)C3)[C@@H]1CN(c1ccc(C#N)c(C(F)(F)F)c1)S2(=O)=O

>  <standard_type>  (594) 
IC50

>  <standard_relation>  (594) 
=

>  <standard_value>  (594) 
430.0

>  <standard_units>  (594) 
nM

>  <target_pref_name>  (594) 
Androgen Receptor

>  <target_chembl_id>  (594) 
CHEMBL1871

>  <target_organism>  (594) 
Homo sapiens

>  <pchembl_median>  (594) 
6.52

$$$$
CHEMBL3907304
     RDKit          2D

 26 29  0  0  0  0  0  0  0  0999 V2000
   -0.1506    2.8906    0.0000 C   0  0  0  0  0  0  0  0  0  0  0  0
   -1.0323    1.6771    0.0000 C   0  0  0  0  0  0  0  0  0  0  0  0
    0.3943    1.2135    0.0000 C   0  0  0  0  0  0  0  0  0  0  0  0
    1.2760    0.0000    0.0000 C   0  0  0  0  0  0  0  0  0  0  0  0
    0.3943   -1.2135    0.0000 C   0  0  0  0  0  0  0  0  0  0  0  0
   -1.0323   -0.7500    0.0000 C   0  0  0  0  0  0  0  0  0  0  0  0
   -1.0323    0.7500    0.0000 C   0  0  0  0  0  0  0  0  0  0  0  0
   -2.2458    1.6317    0.0000 O   0  0  0  0  0  0  0  0  0  0  0  0
   -1.9140    0.4635    0.0000 C   0  0  0  0  0  0  0  0  0  0  0  0
   -3.3405    0.9271    0.0000 C   0  0  0  0  0  0  0  0  0  0  0  0
   -3.3405    2.4271    0.0000 N   0  0  0  0  0  0  0  0  0  0  0  0
   -4.5541    3.3087    0.0000 C   0  0  0  0  0  0  0  0  0  0  0  0
   -4.3973    4.8005    0.0000 C   0  0  0  0  0  0  0  0  0  0  0  0
   -5.6108    5.6822    0.0000 C   0  0  0  0  0  0  0  0  0  0  0  0
   -6.9811    5.0721    0.0000 C   0  0  0  0  0  0  0  0  0  0  0  0
   -8.1947    5.9538    0.0000 C   0  0  0  0  0  0  0  0  0  0  0  0
   -9.4082    6.8354    0.0000 N   0  0  0  0  0  0  0  0  0  0  0  0
   -7.1379    3.5803    0.0000 C   0  0  0  0  0  0  0  0  0  0  0  0
   -8.5082    2.9702    0.0000 C   0  0  0  0  0  0  0  0  0  0  0  0
   -9.8786    2.3601    0.0000 F   0  0  0  0  0  0  0  0  0  0  0  0
   -7.8981    1.5999    0.0000 F   0  0  0  0  0  0  0  0  0  0  0  0
   -9.1183    4.3405    0.0000 F   0  0  0  0  0  0  0  0  0  0  0  0
   -5.9244    2.6986    0.0000 C   0  0  0  0  0  0  0  0  0  0  0  0
   -1.9140    2.8906    0.0000 S   0  0  0  0  0  0  0  0  0  0  0  0
   -2.5241    4.2609    0.0000 O   0  0  0  0  0  0  0  0  0  0  0  0
   -0.6149    3.6406    0.0000 O   0  0  0  0  0  0  0  0  0  0  0  0
  2  1  1  1
  2  3  1  0
  3  4  1  6
  4  5  1  0
  6  5  1  6
  6  7  1  0
  7  8  1  0
  6  9  1  0
  9 10  1  6
 10 11  1  0
 11 12  1  0
 12 13  2  0
 13 14  1  0
 14 15  2  0
 15 16  1  0
 16 17  3  0
 15 18  1  0
 18 19  1  0
 19 20  1  0
 19 21  1  0
 19 22  1  0
 18 23  2  0
 11 24  1  0
 24 25  2  0
 24 26  2  0
  9  2  1  0
 23 12  1  0
 24  2  1  0
  7  3  1  0
M  END
>  <assay_chembl_id>  (595) 
CHEMBL3869526

>  <assay_description>  (595) 
Antagonist activity at androgen receptor in human MDA-MB-453 cells assessed as inhibition of testosterone-induced transactivation

>  <parent_molecule_chembl_id>  (595) 
CHEMBL3907304

>  <canonical_smiles>  (595) 
C[C@@]12[C@@H]3CC[C@@H](C3O)[C@@H]1CN(c1ccc(C#N)c(C(F)(F)F)c1)S2(=O)=O

>  <standard_type>  (595) 
IC50

>  <standard_relation>  (595) 
=

>  <standard_value>  (595) 
327.0

>  <standard_units>  (595) 
nM

>  <target_pref_name>  (595) 
Androgen Receptor

>  <target_chembl_id>  (595) 
CHEMBL1871

>  <target_organism>  (595) 
Homo sapiens

>  <pchembl_median>  (595) 
4.08

$$$$
CHEMBL3935242
     RDKit          2D

 26 29  0  0  0  0  0  0  0  0999 V2000
   -0.1506    2.8906    0.0000 C   0  0  0  0  0  0  0  0  0  0  0  0
   -1.0323    1.6771    0.0000 C   0  0  0  0  0  0  0  0  0  0  0  0
    0.3943    1.2135    0.0000 C   0  0  0  0  0  0  0  0  0  0  0  0
    1.2760    0.0000    0.0000 C   0  0  0  0  0  0  0  0  0  0  0  0
    0.3943   -1.2135    0.0000 C   0  0  0  0  0  0  0  0  0  0  0  0
   -1.0323   -0.7500    0.0000 C   0  0  0  0  0  0  0  0  0  0  0  0
   -1.0323    0.7500    0.0000 C   0  0  0  0  0  0  0  0  0  0  0  0
   -2.2458    1.6317    0.0000 O   0  0  0  0  0  0  0  0  0  0  0  0
   -1.9140    0.4635    0.0000 C   0  0  0  0  0  0  0  0  0  0  0  0
   -3.3405    0.9271    0.0000 C   0  0  0  0  0  0  0  0  0  0  0  0
   -3.3405    2.4271    0.0000 N   0  0  0  0  0  0  0  0  0  0  0  0
   -4.5541    3.3087    0.0000 C   0  0  0  0  0  0  0  0  0  0  0  0
   -4.3973    4.8005    0.0000 C   0  0  0  0  0  0  0  0  0  0  0  0
   -5.6108    5.6822    0.0000 C   0  0  0  0  0  0  0  0  0  0  0  0
   -6.9811    5.0721    0.0000 C   0  0  0  0  0  0  0  0  0  0  0  0
   -8.1947    5.9538    0.0000 C   0  0  0  0  0  0  0  0  0  0  0  0
   -9.4082    6.8354    0.0000 N   0  0  0  0  0  0  0  0  0  0  0  0
   -7.1379    3.5803    0.0000 C   0  0  0  0  0  0  0  0  0  0  0  0
   -8.5082    2.9702    0.0000 C   0  0  0  0  0  0  0  0  0  0  0  0
   -9.8786    2.3601    0.0000 F   0  0  0  0  0  0  0  0  0  0  0  0
   -7.8981    1.5999    0.0000 F   0  0  0  0  0  0  0  0  0  0  0  0
   -9.1183    4.3405    0.0000 F   0  0  0  0  0  0  0  0  0  0  0  0
   -5.9244    2.6986    0.0000 C   0  0  0  0  0  0  0  0  0  0  0  0
   -1.9140    2.8906    0.0000 S   0  0  0  0  0  0  0  0  0  0  0  0
   -2.5241    4.2609    0.0000 O   0  0  0  0  0  0  0  0  0  0  0  0
   -0.6149    3.6406    0.0000 O   0  0  0  0  0  0  0  0  0  0  0  0
  2  1  1  1
  2  3  1  0
  3  4  1  6
  4  5  1  0
  6  5  1  6
  6  7  1  0
  7  8  2  0
  6  9  1  0
  9 10  1  6
 10 11  1  0
 11 12  1  0
 12 13  2  0
 13 14  1  0
 14 15  2  0
 15 16  1  0
 16 17  3  0
 15 18  1  0
 18 19  1  0
 19 20  1  0
 19 21  1  0
 19 22  1  0
 18 23  2  0
 11 24  1  0
 24 25  2  0
 24 26  2  0
  9  2  1  0
 23 12  1  0
 24  2  1  0
  7  3  1  0
M  END
>  <assay_chembl_id>  (596) 
CHEMBL3869526

>  <assay_description>  (596) 
Antagonist activity at androgen receptor in human MDA-MB-453 cells assessed as inhibition of testosterone-induced transactivation

>  <parent_molecule_chembl_id>  (596) 
CHEMBL3935242

>  <canonical_smiles>  (596) 
C[C@@]12[C@@H]3CC[C@@H](C3=O)[C@@H]1CN(c1ccc(C#N)c(C(F)(F)F)c1)S2(=O)=O

>  <standard_type>  (596) 
IC50

>  <standard_relation>  (596) 
=

>  <standard_value>  (596) 
67.0

>  <standard_units>  (596) 
nM

>  <target_pref_name>  (596) 
Androgen Receptor

>  <target_chembl_id>  (596) 
CHEMBL1871

>  <target_organism>  (596) 
Homo sapiens

>  <pchembl_median>  (596) 
5.75

$$$$
CHEMBL3898284
     RDKit          2D

 25 28  0  0  0  0  0  0  0  0999 V2000
   -0.1506    2.8906    0.0000 C   0  0  0  0  0  0  0  0  0  0  0  0
   -1.0323    1.6771    0.0000 C   0  0  0  0  0  0  0  0  0  0  0  0
    0.3943    1.2135    0.0000 C   0  0  0  0  0  0  0  0  0  0  0  0
    1.2760    0.0000    0.0000 C   0  0  0  0  0  0  0  0  0  0  0  0
    0.3943   -1.2135    0.0000 C   0  0  0  0  0  0  0  0  0  0  0  0
   -1.0323   -0.7500    0.0000 C   0  0  0  0  0  0  0  0  0  0  0  0
   -1.0323    0.7500    0.0000 C   0  0  0  0  0  0  0  0  0  0  0  0
   -1.9140    0.4635    0.0000 C   0  0  0  0  0  0  0  0  0  0  0  0
   -3.3405    0.9271    0.0000 C   0  0  0  0  0  0  0  0  0  0  0  0
   -3.3405    2.4271    0.0000 N   0  0  0  0  0  0  0  0  0  0  0  0
   -4.5541    3.3087    0.0000 C   0  0  0  0  0  0  0  0  0  0  0  0
   -4.3973    4.8005    0.0000 C   0  0  0  0  0  0  0  0  0  0  0  0
   -5.6108    5.6822    0.0000 C   0  0  0  0  0  0  0  0  0  0  0  0
   -6.9811    5.0721    0.0000 C   0  0  0  0  0  0  0  0  0  0  0  0
   -8.1947    5.9538    0.0000 C   0  0  0  0  0  0  0  0  0  0  0  0
   -9.4082    6.8354    0.0000 N   0  0  0  0  0  0  0  0  0  0  0  0
   -7.1379    3.5803    0.0000 C   0  0  0  0  0  0  0  0  0  0  0  0
   -8.5082    2.9702    0.0000 C   0  0  0  0  0  0  0  0  0  0  0  0
   -9.8786    2.3601    0.0000 F   0  0  0  0  0  0  0  0  0  0  0  0
   -7.8981    1.5999    0.0000 F   0  0  0  0  0  0  0  0  0  0  0  0
   -9.1183    4.3405    0.0000 F   0  0  0  0  0  0  0  0  0  0  0  0
   -5.9244    2.6986    0.0000 C   0  0  0  0  0  0  0  0  0  0  0  0
   -1.9140    2.8906    0.0000 S   0  0  0  0  0  0  0  0  0  0  0  0
   -2.5241    4.2609    0.0000 O   0  0  0  0  0  0  0  0  0  0  0  0
   -0.6149    3.6406    0.0000 O   0  0  0  0  0  0  0  0  0  0  0  0
  2  1  1  1
  2  3  1  0
  3  4  1  6
  4  5  2  0
  6  5  1  6
  6  7  1  0
  6  8  1  0
  8  9  1  6
  9 10  1  0
 10 11  1  0
 11 12  2  0
 12 13  1  0
 13 14  2  0
 14 15  1  0
 15 16  3  0
 14 17  1  0
 17 18  1  0
 18 19  1  0
 18 20  1  0
 18 21  1  0
 17 22  2  0
 10 23  1  0
 23 24  2  0
 23 25  2  0
  8  2  1  0
 22 11  1  0
 23  2  1  0
  7  3  1  0
M  END
>  <assay_chembl_id>  (597) 
CHEMBL3869526

>  <assay_description>  (597) 
Antagonist activity at androgen receptor in human MDA-MB-453 cells assessed as inhibition of testosterone-induced transactivation

>  <parent_molecule_chembl_id>  (597) 
CHEMBL3898284

>  <canonical_smiles>  (597) 
C[C@@]12[C@@H]3C=C[C@@H](C3)[C@@H]1CN(c1ccc(C#N)c(C(F)(F)F)c1)S2(=O)=O

>  <standard_type>  (597) 
IC50

>  <standard_relation>  (597) 
=

>  <standard_value>  (597) 
30.0

>  <standard_units>  (597) 
nM

>  <target_pref_name>  (597) 
Androgen Receptor

>  <target_chembl_id>  (597) 
CHEMBL1871

>  <target_organism>  (597) 
Homo sapiens

>  <pchembl_median>  (597) 
6.42

$$$$
CHEMBL3926358
     RDKit          2D

 25 28  0  0  0  0  0  0  0  0999 V2000
   -0.1506    2.8906    0.0000 C   0  0  0  0  0  0  0  0  0  0  0  0
   -1.0323    1.6771    0.0000 C   0  0  0  0  0  0  0  0  0  0  0  0
    0.3943    1.2135    0.0000 C   0  0  0  0  0  0  0  0  0  0  0  0
    1.2760    0.0000    0.0000 C   0  0  0  0  0  0  0  0  0  0  0  0
    0.3943   -1.2135    0.0000 C   0  0  0  0  0  0  0  0  0  0  0  0
   -1.0323   -0.7500    0.0000 C   0  0  0  0  0  0  0  0  0  0  0  0
   -1.0323    0.7500    0.0000 C   0  0  0  0  0  0  0  0  0  0  0  0
   -1.9140    0.4635    0.0000 C   0  0  0  0  0  0  0  0  0  0  0  0
   -3.3405    0.9271    0.0000 C   0  0  0  0  0  0  0  0  0  0  0  0
   -3.3405    2.4271    0.0000 N   0  0  0  0  0  0  0  0  0  0  0  0
   -4.5541    3.3087    0.0000 C   0  0  0  0  0  0  0  0  0  0  0  0
   -4.3973    4.8005    0.0000 C   0  0  0  0  0  0  0  0  0  0  0  0
   -5.6108    5.6822    0.0000 C   0  0  0  0  0  0  0  0  0  0  0  0
   -6.9811    5.0721    0.0000 C   0  0  0  0  0  0  0  0  0  0  0  0
   -8.1947    5.9538    0.0000 C   0  0  0  0  0  0  0  0  0  0  0  0
   -9.4082    6.8354    0.0000 N   0  0  0  0  0  0  0  0  0  0  0  0
   -7.1379    3.5803    0.0000 C   0  0  0  0  0  0  0  0  0  0  0  0
   -8.5082    2.9702    0.0000 C   0  0  0  0  0  0  0  0  0  0  0  0
   -9.8786    2.3601    0.0000 F   0  0  0  0  0  0  0  0  0  0  0  0
   -7.8981    1.5999    0.0000 F   0  0  0  0  0  0  0  0  0  0  0  0
   -9.1183    4.3405    0.0000 F   0  0  0  0  0  0  0  0  0  0  0  0
   -5.9244    2.6986    0.0000 C   0  0  0  0  0  0  0  0  0  0  0  0
   -1.9140    2.8906    0.0000 S   0  0  0  0  0  0  0  0  0  0  0  0
   -2.5241    4.2609    0.0000 O   0  0  0  0  0  0  0  0  0  0  0  0
   -0.6149    3.6406    0.0000 O   0  0  0  0  0  0  0  0  0  0  0  0
  2  1  1  1
  2  3  1  0
  3  4  1  6
  4  5  1  0
  6  5  1  6
  6  7  1  0
  6  8  1  0
  8  9  1  6
  9 10  1  0
 10 11  1  0
 11 12  2  0
 12 13  1  0
 13 14  2  0
 14 15  1  0
 15 16  3  0
 14 17  1  0
 17 18  1  0
 18 19  1  0
 18 20  1  0
 18 21  1  0
 17 22  2  0
 10 23  1  0
 23 24  2  0
 23 25  2  0
  8  2  1  0
 22 11  1  0
 23  2  1  0
  7  3  1  0
M  END
>  <assay_chembl_id>  (598) 
CHEMBL3869526

>  <assay_description>  (598) 
Antagonist activity at androgen receptor in human MDA-MB-453 cells assessed as inhibition of testosterone-induced transactivation

>  <parent_molecule_chembl_id>  (598) 
CHEMBL3926358

>  <canonical_smiles>  (598) 
C[C@@]12[C@@H]3CC[C@@H](C3)[C@@H]1CN(c1ccc(C#N)c(C(F)(F)F)c1)S2(=O)=O

>  <standard_type>  (598) 
IC50

>  <standard_relation>  (598) 
=

>  <standard_value>  (598) 
73.0

>  <standard_units>  (598) 
nM

>  <target_pref_name>  (598) 
Androgen Receptor

>  <target_chembl_id>  (598) 
CHEMBL1871

>  <target_organism>  (598) 
Homo sapiens

>  <pchembl_median>  (598) 
6.19

$$$$
CHEMBL3987109
     RDKit          2D

 24 27  0  0  0  0  0  0  0  0999 V2000
   -9.4082    6.8354    0.0000 N   0  0  0  0  0  0  0  0  0  0  0  0
   -8.1947    5.9538    0.0000 C   0  0  0  0  0  0  0  0  0  0  0  0
   -6.9811    5.0721    0.0000 C   0  0  0  0  0  0  0  0  0  0  0  0
   -5.6108    5.6822    0.0000 C   0  0  0  0  0  0  0  0  0  0  0  0
   -4.3973    4.8005    0.0000 C   0  0  0  0  0  0  0  0  0  0  0  0
   -4.5541    3.3087    0.0000 C   0  0  0  0  0  0  0  0  0  0  0  0
   -3.3405    2.4271    0.0000 N   0  0  0  0  0  0  0  0  0  0  0  0
   -1.9140    2.8906    0.0000 C   0  0  0  0  0  0  0  0  0  0  0  0
   -1.0323    1.6771    0.0000 C   0  0  0  0  0  0  0  0  0  0  0  0
    0.3943    1.2135    0.0000 C   0  0  0  0  0  0  0  0  0  0  0  0
    1.2760    0.0000    0.0000 C   0  0  0  0  0  0  0  0  0  0  0  0
    0.3943   -1.2135    0.0000 C   0  0  0  0  0  0  0  0  0  0  0  0
   -1.0323   -0.7500    0.0000 C   0  0  0  0  0  0  0  0  0  0  0  0
   -1.0323    0.7500    0.0000 C   0  0  0  0  0  0  0  0  0  0  0  0
   -1.9140    0.4635    0.0000 C   0  0  0  0  0  0  0  0  0  0  0  0
   -3.3405    0.9271    0.0000 S   0  0  0  0  0  0  0  0  0  0  0  0
   -3.6524   -0.5402    0.0000 O   0  0  0  0  0  0  0  0  0  0  0  0
   -4.8323    1.0838    0.0000 O   0  0  0  0  0  0  0  0  0  0  0  0
   -5.9244    2.6986    0.0000 C   0  0  0  0  0  0  0  0  0  0  0  0
   -7.1379    3.5803    0.0000 C   0  0  0  0  0  0  0  0  0  0  0  0
   -8.5082    2.9702    0.0000 C   0  0  0  0  0  0  0  0  0  0  0  0
   -9.8786    2.3601    0.0000 F   0  0  0  0  0  0  0  0  0  0  0  0
   -7.8981    1.5999    0.0000 F   0  0  0  0  0  0  0  0  0  0  0  0
   -9.1183    4.3405    0.0000 F   0  0  0  0  0  0  0  0  0  0  0  0
  1  2  3  0
  2  3  1  0
  3  4  2  0
  4  5  1  0
  5  6  2  0
  6  7  1  0
  7  8  1  0
  9  8  1  1
  9 10  1  0
 10 11  1  1
 11 12  2  0
 13 12  1  1
 13 14  1  0
 13 15  1  0
 15 16  1  1
 16 17  2  0
 16 18  2  0
  6 19  1  0
 19 20  2  0
 20 21  1  0
 21 22  1  0
 21 23  1  0
 21 24  1  0
 20  3  1  0
 16  7  1  0
 15  9  1  0
 14 10  1  0
M  END
>  <assay_chembl_id>  (599) 
CHEMBL3869526

>  <assay_description>  (599) 
Antagonist activity at androgen receptor in human MDA-MB-453 cells assessed as inhibition of testosterone-induced transactivation

>  <parent_molecule_chembl_id>  (599) 
CHEMBL3987109

>  <canonical_smiles>  (599) 
N#Cc1ccc(N2C[C@H]3[C@H]4C=C[C@H](C4)[C@H]3S2(=O)=O)cc1C(F)(F)F

>  <standard_type>  (599) 
IC50

>  <standard_relation>  (599) 
=

>  <standard_value>  (599) 
219.0

>  <standard_units>  (599) 
nM

>  <target_pref_name>  (599) 
Androgen Receptor

>  <target_chembl_id>  (599) 
CHEMBL1871

>  <target_organism>  (599) 
Homo sapiens

>  <pchembl_median>  (599) 
5.23

$$$$
CHEMBL3917372
     RDKit          2D

 24 27  0  0  0  0  0  0  0  0999 V2000
   -9.4082    6.8354    0.0000 N   0  0  0  0  0  0  0  0  0  0  0  0
   -8.1947    5.9538    0.0000 C   0  0  0  0  0  0  0  0  0  0  0  0
   -6.9811    5.0721    0.0000 C   0  0  0  0  0  0  0  0  0  0  0  0
   -5.6108    5.6822    0.0000 C   0  0  0  0  0  0  0  0  0  0  0  0
   -4.3973    4.8005    0.0000 C   0  0  0  0  0  0  0  0  0  0  0  0
   -4.5541    3.3087    0.0000 C   0  0  0  0  0  0  0  0  0  0  0  0
   -3.3405    2.4271    0.0000 N   0  0  0  0  0  0  0  0  0  0  0  0
   -1.9140    2.8906    0.0000 C   0  0  0  0  0  0  0  0  0  0  0  0
   -1.0323    1.6771    0.0000 C   0  0  0  0  0  0  0  0  0  0  0  0
    0.3943    1.2135    0.0000 C   0  0  0  0  0  0  0  0  0  0  0  0
    1.2760    0.0000    0.0000 C   0  0  0  0  0  0  0  0  0  0  0  0
    0.3943   -1.2135    0.0000 C   0  0  0  0  0  0  0  0  0  0  0  0
   -1.0323   -0.7500    0.0000 C   0  0  0  0  0  0  0  0  0  0  0  0
   -1.0323    0.7500    0.0000 C   0  0  0  0  0  0  0  0  0  0  0  0
   -1.9140    0.4635    0.0000 C   0  0  0  0  0  0  0  0  0  0  0  0
   -3.3405    0.9271    0.0000 S   0  0  0  0  0  0  0  0  0  0  0  0
   -3.6524   -0.5402    0.0000 O   0  0  0  0  0  0  0  0  0  0  0  0
   -4.8323    1.0838    0.0000 O   0  0  0  0  0  0  0  0  0  0  0  0
   -5.9244    2.6986    0.0000 C   0  0  0  0  0  0  0  0  0  0  0  0
   -7.1379    3.5803    0.0000 C   0  0  0  0  0  0  0  0  0  0  0  0
   -8.5082    2.9702    0.0000 C   0  0  0  0  0  0  0  0  0  0  0  0
   -9.8786    2.3601    0.0000 F   0  0  0  0  0  0  0  0  0  0  0  0
   -7.8981    1.5999    0.0000 F   0  0  0  0  0  0  0  0  0  0  0  0
   -9.1183    4.3405    0.0000 F   0  0  0  0  0  0  0  0  0  0  0  0
  1  2  3  0
  2  3  1  0
  3  4  2  0
  4  5  1  0
  5  6  2  0
  6  7  1  0
  7  8  1  0
  9  8  1  1
  9 10  1  0
 10 11  1  1
 11 12  1  0
 13 12  1  1
 13 14  1  0
 13 15  1  0
 15 16  1  1
 16 17  2  0
 16 18  2  0
  6 19  1  0
 19 20  2  0
 20 21  1  0
 21 22  1  0
 21 23  1  0
 21 24  1  0
 20  3  1  0
 16  7  1  0
 15  9  1  0
 14 10  1  0
M  END
>  <assay_chembl_id>  (600) 
CHEMBL3869526

>  <assay_description>  (600) 
Antagonist activity at androgen receptor in human MDA-MB-453 cells assessed as inhibition of testosterone-induced transactivation

>  <parent_molecule_chembl_id>  (600) 
CHEMBL3917372

>  <canonical_smiles>  (600) 
N#Cc1ccc(N2C[C@H]3[C@H]4CC[C@H](C4)[C@H]3S2(=O)=O)cc1C(F)(F)F

>  <standard_type>  (600) 
IC50

>  <standard_relation>  (600) 
=

>  <standard_value>  (600) 
130.0

>  <standard_units>  (600) 
nM

>  <target_pref_name>  (600) 
Androgen Receptor

>  <target_chembl_id>  (600) 
CHEMBL1871

>  <target_organism>  (600) 
Homo sapiens

>  <pchembl_median>  (600) 
6.77

$$$$
CHEMBL4098395
     RDKit          2D

 26 29  0  0  0  0  0  0  0  0999 V2000
    2.6401   -3.1891    0.0000 O   0  0  0  0  0  0  0  0  0  0  0  0
    1.2135   -2.7256    0.0000 C   0  0  0  0  0  0  0  0  0  0  0  0
    0.7500   -1.2990    0.0000 C   0  0  0  0  0  0  0  0  0  0  0  0
    1.5000    0.0000    0.0000 C   0  0  0  0  0  0  0  0  0  0  0  0
    0.7500    1.2990    0.0000 C   0  0  0  0  0  0  0  0  0  0  0  0
   -0.7500    1.2990    0.0000 C   0  0  0  0  0  0  0  0  0  0  0  0
   -1.5000    2.5981    0.0000 F   0  0  0  0  0  0  0  0  0  0  0  0
   -1.5000    0.0000    0.0000 C   0  0  0  0  0  0  0  0  0  0  0  0
   -0.7500   -1.2990    0.0000 C   0  0  0  0  0  0  0  0  0  0  0  0
   -1.2135   -2.7256    0.0000 C   0  0  0  0  0  0  0  0  0  0  0  0
   -2.6401   -3.1891    0.0000 O   0  0  0  0  0  0  0  0  0  0  0  0
   -0.0000   -3.6073    0.0000 N   0  0  0  0  0  0  0  0  0  0  0  0
   -0.0000   -5.1073    0.0000 C   0  0  0  0  0  0  0  0  0  0  0  0
    1.2135   -5.9890    0.0000 N   0  0  0  0  0  0  0  0  0  0  0  0
    0.7500   -7.4156    0.0000 C   0  0  0  0  0  0  0  0  0  0  0  0
    1.6317   -8.6291    0.0000 C   0  0  0  0  0  0  0  0  0  0  0  0
    1.0216   -9.9994    0.0000 C   0  0  0  0  0  0  0  0  0  0  0  0
    1.9033  -11.2129    0.0000 C   0  0  0  0  0  0  0  0  0  0  0  0
    3.3950  -11.0561    0.0000 C   0  0  0  0  0  0  0  0  0  0  0  0
    4.2767  -12.2697    0.0000 N   0  0  0  0  0  4  0  0  0  0  0  0
    5.7685  -12.1129    0.0000 O   0  0  0  0  0  0  0  0  0  0  0  0
    3.6666  -13.6400    0.0000 O   0  0  0  0  0  1  0  0  0  0  0  0
    4.0051   -9.6858    0.0000 C   0  0  0  0  0  0  0  0  0  0  0  0
    3.1235   -8.4723    0.0000 C   0  0  0  0  0  0  0  0  0  0  0  0
   -0.7500   -7.4156    0.0000 C   0  0  0  0  0  0  0  0  0  0  0  0
   -1.2135   -5.9890    0.0000 S   0  0  0  0  0  0  0  0  0  0  0  0
  1  2  2  0
  2  3  1  0
  3  4  2  0
  4  5  1  0
  5  6  2  0
  6  7  1  0
  6  8  1  0
  8  9  2  0
  9 10  1  0
 10 11  2  0
 10 12  1  0
 12 13  1  0
 13 14  2  0
 14 15  1  0
 15 16  1  0
 16 17  2  0
 17 18  1  0
 18 19  2  0
 19 20  1  0
 20 21  2  0
 20 22  1  0
 19 23  1  0
 23 24  2  0
 15 25  2  0
 25 26  1  0
 12  2  1  0
 26 13  1  0
  9  3  1  0
 24 16  1  0
M  CHG  2  20   1  22  -1
M  END
>  <assay_chembl_id>  (601) 
CHEMBL3997084

>  <assay_description>  (601) 
Antagonist activity at AR T877A mutant in human LNCAP cells assessed as inhibition of DHT-induced proliferation after 48 hrs by MTT assay

>  <parent_molecule_chembl_id>  (601) 
CHEMBL4098395

>  <canonical_smiles>  (601) 
O=C1c2ccc(F)cc2C(=O)N1c1nc(-c2ccc([N+](=O)[O-])cc2)cs1

>  <standard_type>  (601) 
IC50

>  <standard_relation>  (601) 
=

>  <standard_value>  (601) 
7780.0

>  <standard_units>  (601) 
nM

>  <target_pref_name>  (601) 
Androgen Receptor

>  <target_chembl_id>  (601) 
CHEMBL1871

>  <target_organism>  (601) 
Homo sapiens

>  <pchembl_median>  (601) 
6.22

$$$$
CHEMBL4088224
     RDKit          2D

 25 28  0  0  0  0  0  0  0  0999 V2000
    5.1584  -13.4832    0.0000 N   0  0  0  0  0  0  0  0  0  0  0  0
    4.2767  -12.2697    0.0000 C   0  0  0  0  0  0  0  0  0  0  0  0
    3.3950  -11.0561    0.0000 C   0  0  0  0  0  0  0  0  0  0  0  0
    1.9033  -11.2129    0.0000 C   0  0  0  0  0  0  0  0  0  0  0  0
    1.0216   -9.9994    0.0000 C   0  0  0  0  0  0  0  0  0  0  0  0
    1.6317   -8.6291    0.0000 C   0  0  0  0  0  0  0  0  0  0  0  0
    0.7500   -7.4156    0.0000 C   0  0  0  0  0  0  0  0  0  0  0  0
   -0.7500   -7.4156    0.0000 C   0  0  0  0  0  0  0  0  0  0  0  0
   -1.2135   -5.9890    0.0000 S   0  0  0  0  0  0  0  0  0  0  0  0
   -0.0000   -5.1073    0.0000 C   0  0  0  0  0  0  0  0  0  0  0  0
   -0.0000   -3.6073    0.0000 N   0  0  0  0  0  0  0  0  0  0  0  0
    1.2135   -2.7256    0.0000 C   0  0  0  0  0  0  0  0  0  0  0  0
    2.6401   -3.1891    0.0000 O   0  0  0  0  0  0  0  0  0  0  0  0
    0.7500   -1.2990    0.0000 C   0  0  0  0  0  0  0  0  0  0  0  0
    1.5000    0.0000    0.0000 C   0  0  0  0  0  0  0  0  0  0  0  0
    0.7500    1.2990    0.0000 C   0  0  0  0  0  0  0  0  0  0  0  0
   -0.7500    1.2990    0.0000 C   0  0  0  0  0  0  0  0  0  0  0  0
   -1.5000    2.5981    0.0000 F   0  0  0  0  0  0  0  0  0  0  0  0
   -1.5000    0.0000    0.0000 C   0  0  0  0  0  0  0  0  0  0  0  0
   -0.7500   -1.2990    0.0000 C   0  0  0  0  0  0  0  0  0  0  0  0
   -1.2135   -2.7256    0.0000 C   0  0  0  0  0  0  0  0  0  0  0  0
   -2.6401   -3.1891    0.0000 O   0  0  0  0  0  0  0  0  0  0  0  0
    1.2135   -5.9890    0.0000 N   0  0  0  0  0  0  0  0  0  0  0  0
    3.1235   -8.4723    0.0000 C   0  0  0  0  0  0  0  0  0  0  0  0
    4.0051   -9.6858    0.0000 C   0  0  0  0  0  0  0  0  0  0  0  0
  1  2  3  0
  2  3  1  0
  3  4  2  0
  4  5  1  0
  5  6  2  0
  6  7  1  0
  7  8  2  0
  8  9  1  0
  9 10  1  0
 10 11  1  0
 11 12  1  0
 12 13  2  0
 12 14  1  0
 14 15  2  0
 15 16  1  0
 16 17  2  0
 17 18  1  0
 17 19  1  0
 19 20  2  0
 20 21  1  0
 21 22  2  0
 10 23  2  0
  6 24  1  0
 24 25  2  0
 25  3  1  0
 23  7  1  0
 21 11  1  0
 20 14  1  0
M  END
>  <assay_chembl_id>  (602) 
CHEMBL3997084

>  <assay_description>  (602) 
Antagonist activity at AR T877A mutant in human LNCAP cells assessed as inhibition of DHT-induced proliferation after 48 hrs by MTT assay

>  <parent_molecule_chembl_id>  (602) 
CHEMBL4088224

>  <canonical_smiles>  (602) 
N#Cc1ccc(-c2csc(N3C(=O)c4ccc(F)cc4C3=O)n2)cc1

>  <standard_type>  (602) 
IC50

>  <standard_relation>  (602) 
=

>  <standard_value>  (602) 
5960.0

>  <standard_units>  (602) 
nM

>  <target_pref_name>  (602) 
Androgen Receptor

>  <target_chembl_id>  (602) 
CHEMBL1871

>  <target_organism>  (602) 
Homo sapiens

>  <pchembl_median>  (602) 
6.45

$$$$
CHEMBL4059979
     RDKit          2D

 25 28  0  0  0  0  0  0  0  0999 V2000
    3.6666  -13.6400    0.0000 C   0  0  0  0  0  0  0  0  0  0  0  0
    4.2767  -12.2697    0.0000 O   0  0  0  0  0  0  0  0  0  0  0  0
    3.3950  -11.0561    0.0000 C   0  0  0  0  0  0  0  0  0  0  0  0
    1.9033  -11.2129    0.0000 C   0  0  0  0  0  0  0  0  0  0  0  0
    1.0216   -9.9994    0.0000 C   0  0  0  0  0  0  0  0  0  0  0  0
    1.6317   -8.6291    0.0000 C   0  0  0  0  0  0  0  0  0  0  0  0
    0.7500   -7.4156    0.0000 C   0  0  0  0  0  0  0  0  0  0  0  0
   -0.7500   -7.4156    0.0000 C   0  0  0  0  0  0  0  0  0  0  0  0
   -1.2135   -5.9890    0.0000 S   0  0  0  0  0  0  0  0  0  0  0  0
   -0.0000   -5.1073    0.0000 C   0  0  0  0  0  0  0  0  0  0  0  0
   -0.0000   -3.6073    0.0000 N   0  0  0  0  0  0  0  0  0  0  0  0
    1.2135   -2.7256    0.0000 C   0  0  0  0  0  0  0  0  0  0  0  0
    2.6401   -3.1891    0.0000 O   0  0  0  0  0  0  0  0  0  0  0  0
    0.7500   -1.2990    0.0000 C   0  0  0  0  0  0  0  0  0  0  0  0
    1.5000    0.0000    0.0000 C   0  0  0  0  0  0  0  0  0  0  0  0
    0.7500    1.2990    0.0000 C   0  0  0  0  0  0  0  0  0  0  0  0
   -0.7500    1.2990    0.0000 C   0  0  0  0  0  0  0  0  0  0  0  0
   -1.5000    2.5981    0.0000 F   0  0  0  0  0  0  0  0  0  0  0  0
   -1.5000    0.0000    0.0000 C   0  0  0  0  0  0  0  0  0  0  0  0
   -0.7500   -1.2990    0.0000 C   0  0  0  0  0  0  0  0  0  0  0  0
   -1.2135   -2.7256    0.0000 C   0  0  0  0  0  0  0  0  0  0  0  0
   -2.6401   -3.1891    0.0000 O   0  0  0  0  0  0  0  0  0  0  0  0
    1.2135   -5.9890    0.0000 N   0  0  0  0  0  0  0  0  0  0  0  0
    3.1235   -8.4723    0.0000 C   0  0  0  0  0  0  0  0  0  0  0  0
    4.0051   -9.6858    0.0000 C   0  0  0  0  0  0  0  0  0  0  0  0
  1  2  1  0
  2  3  1  0
  3  4  2  0
  4  5  1  0
  5  6  2  0
  6  7  1  0
  7  8  2  0
  8  9  1  0
  9 10  1  0
 10 11  1  0
 11 12  1  0
 12 13  2  0
 12 14  1  0
 14 15  2  0
 15 16  1  0
 16 17  2  0
 17 18  1  0
 17 19  1  0
 19 20  2  0
 20 21  1  0
 21 22  2  0
 10 23  2  0
  6 24  1  0
 24 25  2  0
 25  3  1  0
 23  7  1  0
 21 11  1  0
 20 14  1  0
M  END
>  <assay_chembl_id>  (603) 
CHEMBL3997084

>  <assay_description>  (603) 
Antagonist activity at AR T877A mutant in human LNCAP cells assessed as inhibition of DHT-induced proliferation after 48 hrs by MTT assay

>  <parent_molecule_chembl_id>  (603) 
CHEMBL4059979

>  <canonical_smiles>  (603) 
COc1ccc(-c2csc(N3C(=O)c4ccc(F)cc4C3=O)n2)cc1

>  <standard_type>  (603) 
IC50

>  <standard_relation>  (603) 
=

>  <standard_value>  (603) 
8170.0

>  <standard_units>  (603) 
nM

>  <target_pref_name>  (603) 
Androgen Receptor

>  <target_chembl_id>  (603) 
CHEMBL1871

>  <target_organism>  (603) 
Homo sapiens

>  <pchembl_median>  (603) 
5.53

$$$$
CHEMBL4060981
     RDKit          2D

 24 27  0  0  0  0  0  0  0  0999 V2000
    4.2767  -12.2697    0.0000 C   0  0  0  0  0  0  0  0  0  0  0  0
    3.3950  -11.0561    0.0000 C   0  0  0  0  0  0  0  0  0  0  0  0
    1.9033  -11.2129    0.0000 C   0  0  0  0  0  0  0  0  0  0  0  0
    1.0216   -9.9994    0.0000 C   0  0  0  0  0  0  0  0  0  0  0  0
    1.6317   -8.6291    0.0000 C   0  0  0  0  0  0  0  0  0  0  0  0
    0.7500   -7.4156    0.0000 C   0  0  0  0  0  0  0  0  0  0  0  0
   -0.7500   -7.4156    0.0000 C   0  0  0  0  0  0  0  0  0  0  0  0
   -1.2135   -5.9890    0.0000 S   0  0  0  0  0  0  0  0  0  0  0  0
   -0.0000   -5.1073    0.0000 C   0  0  0  0  0  0  0  0  0  0  0  0
   -0.0000   -3.6073    0.0000 N   0  0  0  0  0  0  0  0  0  0  0  0
    1.2135   -2.7256    0.0000 C   0  0  0  0  0  0  0  0  0  0  0  0
    2.6401   -3.1891    0.0000 O   0  0  0  0  0  0  0  0  0  0  0  0
    0.7500   -1.2990    0.0000 C   0  0  0  0  0  0  0  0  0  0  0  0
    1.5000    0.0000    0.0000 C   0  0  0  0  0  0  0  0  0  0  0  0
    0.7500    1.2990    0.0000 C   0  0  0  0  0  0  0  0  0  0  0  0
   -0.7500    1.2990    0.0000 C   0  0  0  0  0  0  0  0  0  0  0  0
   -1.5000    2.5981    0.0000 F   0  0  0  0  0  0  0  0  0  0  0  0
   -1.5000    0.0000    0.0000 C   0  0  0  0  0  0  0  0  0  0  0  0
   -0.7500   -1.2990    0.0000 C   0  0  0  0  0  0  0  0  0  0  0  0
   -1.2135   -2.7256    0.0000 C   0  0  0  0  0  0  0  0  0  0  0  0
   -2.6401   -3.1891    0.0000 O   0  0  0  0  0  0  0  0  0  0  0  0
    1.2135   -5.9890    0.0000 N   0  0  0  0  0  0  0  0  0  0  0  0
    3.1235   -8.4723    0.0000 C   0  0  0  0  0  0  0  0  0  0  0  0
    4.0051   -9.6858    0.0000 C   0  0  0  0  0  0  0  0  0  0  0  0
  1  2  1  0
  2  3  2  0
  3  4  1  0
  4  5  2  0
  5  6  1  0
  6  7  2  0
  7  8  1  0
  8  9  1  0
  9 10  1  0
 10 11  1  0
 11 12  2  0
 11 13  1  0
 13 14  2  0
 14 15  1  0
 15 16  2  0
 16 17  1  0
 16 18  1  0
 18 19  2  0
 19 20  1  0
 20 21  2  0
  9 22  2  0
  5 23  1  0
 23 24  2  0
 24  2  1  0
 22  6  1  0
 20 10  1  0
 19 13  1  0
M  END
>  <assay_chembl_id>  (604) 
CHEMBL3997084

>  <assay_description>  (604) 
Antagonist activity at AR T877A mutant in human LNCAP cells assessed as inhibition of DHT-induced proliferation after 48 hrs by MTT assay

>  <parent_molecule_chembl_id>  (604) 
CHEMBL4060981

>  <canonical_smiles>  (604) 
Cc1ccc(-c2csc(N3C(=O)c4ccc(F)cc4C3=O)n2)cc1

>  <standard_type>  (604) 
IC50

>  <standard_relation>  (604) 
=

>  <standard_value>  (604) 
25820.0

>  <standard_units>  (604) 
nM

>  <target_pref_name>  (604) 
Androgen Receptor

>  <target_chembl_id>  (604) 
CHEMBL1871

>  <target_organism>  (604) 
Homo sapiens

>  <pchembl_median>  (604) 
6.45

$$$$
CHEMBL4082860
     RDKit          2D

 24 27  0  0  0  0  0  0  0  0999 V2000
    2.6401   -3.1891    0.0000 O   0  0  0  0  0  0  0  0  0  0  0  0
    1.2135   -2.7256    0.0000 C   0  0  0  0  0  0  0  0  0  0  0  0
    0.7500   -1.2990    0.0000 C   0  0  0  0  0  0  0  0  0  0  0  0
    1.5000    0.0000    0.0000 C   0  0  0  0  0  0  0  0  0  0  0  0
    0.7500    1.2990    0.0000 C   0  0  0  0  0  0  0  0  0  0  0  0
   -0.7500    1.2990    0.0000 C   0  0  0  0  0  0  0  0  0  0  0  0
   -1.5000    2.5981    0.0000 F   0  0  0  0  0  0  0  0  0  0  0  0
   -1.5000    0.0000    0.0000 C   0  0  0  0  0  0  0  0  0  0  0  0
   -0.7500   -1.2990    0.0000 C   0  0  0  0  0  0  0  0  0  0  0  0
   -1.2135   -2.7256    0.0000 C   0  0  0  0  0  0  0  0  0  0  0  0
   -2.6401   -3.1891    0.0000 O   0  0  0  0  0  0  0  0  0  0  0  0
   -0.0000   -3.6073    0.0000 N   0  0  0  0  0  0  0  0  0  0  0  0
   -0.0000   -5.1073    0.0000 C   0  0  0  0  0  0  0  0  0  0  0  0
    1.2135   -5.9890    0.0000 N   0  0  0  0  0  0  0  0  0  0  0  0
    0.7500   -7.4156    0.0000 C   0  0  0  0  0  0  0  0  0  0  0  0
    1.6317   -8.6291    0.0000 C   0  0  0  0  0  0  0  0  0  0  0  0
    1.0216   -9.9994    0.0000 C   0  0  0  0  0  0  0  0  0  0  0  0
    1.9033  -11.2129    0.0000 C   0  0  0  0  0  0  0  0  0  0  0  0
    3.3950  -11.0561    0.0000 C   0  0  0  0  0  0  0  0  0  0  0  0
    4.2767  -12.2697    0.0000 Cl  0  0  0  0  0  0  0  0  0  0  0  0
    4.0051   -9.6858    0.0000 C   0  0  0  0  0  0  0  0  0  0  0  0
    3.1235   -8.4723    0.0000 C   0  0  0  0  0  0  0  0  0  0  0  0
   -0.7500   -7.4156    0.0000 C   0  0  0  0  0  0  0  0  0  0  0  0
   -1.2135   -5.9890    0.0000 S   0  0  0  0  0  0  0  0  0  0  0  0
  1  2  2  0
  2  3  1  0
  3  4  2  0
  4  5  1  0
  5  6  2  0
  6  7  1  0
  6  8  1  0
  8  9  2  0
  9 10  1  0
 10 11  2  0
 10 12  1  0
 12 13  1  0
 13 14  2  0
 14 15  1  0
 15 16  1  0
 16 17  2  0
 17 18  1  0
 18 19  2  0
 19 20  1  0
 19 21  1  0
 21 22  2  0
 15 23  2  0
 23 24  1  0
 12  2  1  0
 24 13  1  0
  9  3  1  0
 22 16  1  0
M  END
>  <assay_chembl_id>  (605) 
CHEMBL3997084

>  <assay_description>  (605) 
Antagonist activity at AR T877A mutant in human LNCAP cells assessed as inhibition of DHT-induced proliferation after 48 hrs by MTT assay

>  <parent_molecule_chembl_id>  (605) 
CHEMBL4082860

>  <canonical_smiles>  (605) 
O=C1c2ccc(F)cc2C(=O)N1c1nc(-c2ccc(Cl)cc2)cs1

>  <standard_type>  (605) 
IC50

>  <standard_relation>  (605) 
=

>  <standard_value>  (605) 
27960.0

>  <standard_units>  (605) 
nM

>  <target_pref_name>  (605) 
Androgen Receptor

>  <target_chembl_id>  (605) 
CHEMBL1871

>  <target_organism>  (605) 
Homo sapiens

>  <pchembl_median>  (605) 
6.85

$$$$
CHEMBL4069656
     RDKit          2D

 24 27  0  0  0  0  0  0  0  0999 V2000
    2.6401   -3.1891    0.0000 O   0  0  0  0  0  0  0  0  0  0  0  0
    1.2135   -2.7256    0.0000 C   0  0  0  0  0  0  0  0  0  0  0  0
    0.7500   -1.2990    0.0000 C   0  0  0  0  0  0  0  0  0  0  0  0
    1.5000    0.0000    0.0000 C   0  0  0  0  0  0  0  0  0  0  0  0
    0.7500    1.2990    0.0000 C   0  0  0  0  0  0  0  0  0  0  0  0
   -0.7500    1.2990    0.0000 C   0  0  0  0  0  0  0  0  0  0  0  0
   -1.5000    2.5981    0.0000 F   0  0  0  0  0  0  0  0  0  0  0  0
   -1.5000    0.0000    0.0000 C   0  0  0  0  0  0  0  0  0  0  0  0
   -0.7500   -1.2990    0.0000 C   0  0  0  0  0  0  0  0  0  0  0  0
   -1.2135   -2.7256    0.0000 C   0  0  0  0  0  0  0  0  0  0  0  0
   -2.6401   -3.1891    0.0000 O   0  0  0  0  0  0  0  0  0  0  0  0
   -0.0000   -3.6073    0.0000 N   0  0  0  0  0  0  0  0  0  0  0  0
   -0.0000   -5.1073    0.0000 C   0  0  0  0  0  0  0  0  0  0  0  0
    1.2135   -5.9890    0.0000 N   0  0  0  0  0  0  0  0  0  0  0  0
    0.7500   -7.4156    0.0000 C   0  0  0  0  0  0  0  0  0  0  0  0
    1.6317   -8.6291    0.0000 C   0  0  0  0  0  0  0  0  0  0  0  0
    1.0216   -9.9994    0.0000 C   0  0  0  0  0  0  0  0  0  0  0  0
    1.9033  -11.2129    0.0000 C   0  0  0  0  0  0  0  0  0  0  0  0
    3.3950  -11.0561    0.0000 C   0  0  0  0  0  0  0  0  0  0  0  0
    4.2767  -12.2697    0.0000 F   0  0  0  0  0  0  0  0  0  0  0  0
    4.0051   -9.6858    0.0000 C   0  0  0  0  0  0  0  0  0  0  0  0
    3.1235   -8.4723    0.0000 C   0  0  0  0  0  0  0  0  0  0  0  0
   -0.7500   -7.4156    0.0000 C   0  0  0  0  0  0  0  0  0  0  0  0
   -1.2135   -5.9890    0.0000 S   0  0  0  0  0  0  0  0  0  0  0  0
  1  2  2  0
  2  3  1  0
  3  4  2  0
  4  5  1  0
  5  6  2  0
  6  7  1  0
  6  8  1  0
  8  9  2  0
  9 10  1  0
 10 11  2  0
 10 12  1  0
 12 13  1  0
 13 14  2  0
 14 15  1  0
 15 16  1  0
 16 17  2  0
 17 18  1  0
 18 19  2  0
 19 20  1  0
 19 21  1  0
 21 22  2  0
 15 23  2  0
 23 24  1  0
 12  2  1  0
 24 13  1  0
  9  3  1  0
 22 16  1  0
M  END
>  <assay_chembl_id>  (606) 
CHEMBL3997084

>  <assay_description>  (606) 
Antagonist activity at AR T877A mutant in human LNCAP cells assessed as inhibition of DHT-induced proliferation after 48 hrs by MTT assay

>  <parent_molecule_chembl_id>  (606) 
CHEMBL4069656

>  <canonical_smiles>  (606) 
O=C1c2ccc(F)cc2C(=O)N1c1nc(-c2ccc(F)cc2)cs1

>  <standard_type>  (606) 
IC50

>  <standard_relation>  (606) 
=

>  <standard_value>  (606) 
21510.0

>  <standard_units>  (606) 
nM

>  <target_pref_name>  (606) 
Androgen Receptor

>  <target_chembl_id>  (606) 
CHEMBL1871

>  <target_organism>  (606) 
Homo sapiens

>  <pchembl_median>  (606) 
6.19

$$$$
CHEMBL4090670
     RDKit          2D

 23 26  0  0  0  0  0  0  0  0999 V2000
    2.6401   -3.1891    0.0000 O   0  0  0  0  0  0  0  0  0  0  0  0
    1.2135   -2.7256    0.0000 C   0  0  0  0  0  0  0  0  0  0  0  0
    0.7500   -1.2990    0.0000 C   0  0  0  0  0  0  0  0  0  0  0  0
    1.5000    0.0000    0.0000 C   0  0  0  0  0  0  0  0  0  0  0  0
    0.7500    1.2990    0.0000 C   0  0  0  0  0  0  0  0  0  0  0  0
   -0.7500    1.2990    0.0000 C   0  0  0  0  0  0  0  0  0  0  0  0
   -1.5000    2.5981    0.0000 F   0  0  0  0  0  0  0  0  0  0  0  0
   -1.5000    0.0000    0.0000 C   0  0  0  0  0  0  0  0  0  0  0  0
   -0.7500   -1.2990    0.0000 C   0  0  0  0  0  0  0  0  0  0  0  0
   -1.2135   -2.7256    0.0000 C   0  0  0  0  0  0  0  0  0  0  0  0
   -2.6401   -3.1891    0.0000 O   0  0  0  0  0  0  0  0  0  0  0  0
   -0.0000   -3.6073    0.0000 N   0  0  0  0  0  0  0  0  0  0  0  0
   -0.0000   -5.1073    0.0000 C   0  0  0  0  0  0  0  0  0  0  0  0
    1.2135   -5.9890    0.0000 N   0  0  0  0  0  0  0  0  0  0  0  0
    0.7500   -7.4156    0.0000 C   0  0  0  0  0  0  0  0  0  0  0  0
    1.6317   -8.6291    0.0000 C   0  0  0  0  0  0  0  0  0  0  0  0
    1.0216   -9.9994    0.0000 C   0  0  0  0  0  0  0  0  0  0  0  0
    1.9033  -11.2129    0.0000 C   0  0  0  0  0  0  0  0  0  0  0  0
    3.3950  -11.0561    0.0000 C   0  0  0  0  0  0  0  0  0  0  0  0
    4.0051   -9.6858    0.0000 C   0  0  0  0  0  0  0  0  0  0  0  0
    3.1235   -8.4723    0.0000 C   0  0  0  0  0  0  0  0  0  0  0  0
   -0.7500   -7.4156    0.0000 C   0  0  0  0  0  0  0  0  0  0  0  0
   -1.2135   -5.9890    0.0000 S   0  0  0  0  0  0  0  0  0  0  0  0
  1  2  2  0
  2  3  1  0
  3  4  2  0
  4  5  1  0
  5  6  2  0
  6  7  1  0
  6  8  1  0
  8  9  2  0
  9 10  1  0
 10 11  2  0
 10 12  1  0
 12 13  1  0
 13 14  2  0
 14 15  1  0
 15 16  1  0
 16 17  2  0
 17 18  1  0
 18 19  2  0
 19 20  1  0
 20 21  2  0
 15 22  2  0
 22 23  1  0
 12  2  1  0
 23 13  1  0
  9  3  1  0
 21 16  1  0
M  END
>  <assay_chembl_id>  (607) 
CHEMBL3997084

>  <assay_description>  (607) 
Antagonist activity at AR T877A mutant in human LNCAP cells assessed as inhibition of DHT-induced proliferation after 48 hrs by MTT assay

>  <parent_molecule_chembl_id>  (607) 
CHEMBL4090670

>  <canonical_smiles>  (607) 
O=C1c2ccc(F)cc2C(=O)N1c1nc(-c2ccccc2)cs1

>  <standard_type>  (607) 
IC50

>  <standard_relation>  (607) 
=

>  <standard_value>  (607) 
22590.0

>  <standard_units>  (607) 
nM

>  <target_pref_name>  (607) 
Androgen Receptor

>  <target_chembl_id>  (607) 
CHEMBL1871

>  <target_organism>  (607) 
Homo sapiens

>  <pchembl_median>  (607) 
7.445

$$$$
CHEMBL4079171
     RDKit          2D

 25 28  0  0  0  0  0  0  0  0999 V2000
    2.6401   -3.1891    0.0000 O   0  0  0  0  0  0  0  0  0  0  0  0
    1.2135   -2.7256    0.0000 C   0  0  0  0  0  0  0  0  0  0  0  0
    0.7500   -1.2990    0.0000 C   0  0  0  0  0  0  0  0  0  0  0  0
    1.5000    0.0000    0.0000 C   0  0  0  0  0  0  0  0  0  0  0  0
    0.7500    1.2990    0.0000 C   0  0  0  0  0  0  0  0  0  0  0  0
   -0.7500    1.2990    0.0000 C   0  0  0  0  0  0  0  0  0  0  0  0
   -1.5000    0.0000    0.0000 C   0  0  0  0  0  0  0  0  0  0  0  0
   -0.7500   -1.2990    0.0000 C   0  0  0  0  0  0  0  0  0  0  0  0
   -1.2135   -2.7256    0.0000 C   0  0  0  0  0  0  0  0  0  0  0  0
   -2.6401   -3.1891    0.0000 O   0  0  0  0  0  0  0  0  0  0  0  0
   -0.0000   -3.6073    0.0000 N   0  0  0  0  0  0  0  0  0  0  0  0
   -0.0000   -5.1073    0.0000 C   0  0  0  0  0  0  0  0  0  0  0  0
    1.2135   -5.9890    0.0000 N   0  0  0  0  0  0  0  0  0  0  0  0
    0.7500   -7.4156    0.0000 C   0  0  0  0  0  0  0  0  0  0  0  0
    1.6317   -8.6291    0.0000 C   0  0  0  0  0  0  0  0  0  0  0  0
    1.0216   -9.9994    0.0000 C   0  0  0  0  0  0  0  0  0  0  0  0
    1.9033  -11.2129    0.0000 C   0  0  0  0  0  0  0  0  0  0  0  0
    3.3950  -11.0561    0.0000 C   0  0  0  0  0  0  0  0  0  0  0  0
    4.2767  -12.2697    0.0000 N   0  0  0  0  0  4  0  0  0  0  0  0
    5.7685  -12.1129    0.0000 O   0  0  0  0  0  0  0  0  0  0  0  0
    3.6666  -13.6400    0.0000 O   0  0  0  0  0  1  0  0  0  0  0  0
    4.0051   -9.6858    0.0000 C   0  0  0  0  0  0  0  0  0  0  0  0
    3.1235   -8.4723    0.0000 C   0  0  0  0  0  0  0  0  0  0  0  0
   -0.7500   -7.4156    0.0000 C   0  0  0  0  0  0  0  0  0  0  0  0
   -1.2135   -5.9890    0.0000 S   0  0  0  0  0  0  0  0  0  0  0  0
  1  2  2  0
  2  3  1  0
  3  4  2  0
  4  5  1  0
  5  6  2  0
  6  7  1  0
  7  8  2  0
  8  9  1  0
  9 10  2  0
  9 11  1  0
 11 12  1  0
 12 13  2  0
 13 14  1  0
 14 15  1  0
 15 16  2  0
 16 17  1  0
 17 18  2  0
 18 19  1  0
 19 20  2  0
 19 21  1  0
 18 22  1  0
 22 23  2  0
 14 24  2  0
 24 25  1  0
 11  2  1  0
 25 12  1  0
  8  3  1  0
 23 15  1  0
M  CHG  2  19   1  21  -1
M  END
>  <assay_chembl_id>  (608) 
CHEMBL3997084

>  <assay_description>  (608) 
Antagonist activity at AR T877A mutant in human LNCAP cells assessed as inhibition of DHT-induced proliferation after 48 hrs by MTT assay

>  <parent_molecule_chembl_id>  (608) 
CHEMBL4079171

>  <canonical_smiles>  (608) 
O=C1c2ccccc2C(=O)N1c1nc(-c2ccc([N+](=O)[O-])cc2)cs1

>  <standard_type>  (608) 
IC50

>  <standard_relation>  (608) 
=

>  <standard_value>  (608) 
13170.0

>  <standard_units>  (608) 
nM

>  <target_pref_name>  (608) 
Androgen Receptor

>  <target_chembl_id>  (608) 
CHEMBL1871

>  <target_organism>  (608) 
Homo sapiens

>  <pchembl_median>  (608) 
6.5

$$$$
CHEMBL4103425
     RDKit          2D

 24 27  0  0  0  0  0  0  0  0999 V2000
    5.1584  -13.4832    0.0000 N   0  0  0  0  0  0  0  0  0  0  0  0
    4.2767  -12.2697    0.0000 C   0  0  0  0  0  0  0  0  0  0  0  0
    3.3950  -11.0561    0.0000 C   0  0  0  0  0  0  0  0  0  0  0  0
    1.9033  -11.2129    0.0000 C   0  0  0  0  0  0  0  0  0  0  0  0
    1.0216   -9.9994    0.0000 C   0  0  0  0  0  0  0  0  0  0  0  0
    1.6317   -8.6291    0.0000 C   0  0  0  0  0  0  0  0  0  0  0  0
    0.7500   -7.4156    0.0000 C   0  0  0  0  0  0  0  0  0  0  0  0
   -0.7500   -7.4156    0.0000 C   0  0  0  0  0  0  0  0  0  0  0  0
   -1.2135   -5.9890    0.0000 S   0  0  0  0  0  0  0  0  0  0  0  0
   -0.0000   -5.1073    0.0000 C   0  0  0  0  0  0  0  0  0  0  0  0
   -0.0000   -3.6073    0.0000 N   0  0  0  0  0  0  0  0  0  0  0  0
    1.2135   -2.7256    0.0000 C   0  0  0  0  0  0  0  0  0  0  0  0
    2.6401   -3.1891    0.0000 O   0  0  0  0  0  0  0  0  0  0  0  0
    0.7500   -1.2990    0.0000 C   0  0  0  0  0  0  0  0  0  0  0  0
    1.5000    0.0000    0.0000 C   0  0  0  0  0  0  0  0  0  0  0  0
    0.7500    1.2990    0.0000 C   0  0  0  0  0  0  0  0  0  0  0  0
   -0.7500    1.2990    0.0000 C   0  0  0  0  0  0  0  0  0  0  0  0
   -1.5000    0.0000    0.0000 C   0  0  0  0  0  0  0  0  0  0  0  0
   -0.7500   -1.2990    0.0000 C   0  0  0  0  0  0  0  0  0  0  0  0
   -1.2135   -2.7256    0.0000 C   0  0  0  0  0  0  0  0  0  0  0  0
   -2.6401   -3.1891    0.0000 O   0  0  0  0  0  0  0  0  0  0  0  0
    1.2135   -5.9890    0.0000 N   0  0  0  0  0  0  0  0  0  0  0  0
    3.1235   -8.4723    0.0000 C   0  0  0  0  0  0  0  0  0  0  0  0
    4.0051   -9.6858    0.0000 C   0  0  0  0  0  0  0  0  0  0  0  0
  1  2  3  0
  2  3  1  0
  3  4  2  0
  4  5  1  0
  5  6  2  0
  6  7  1  0
  7  8  2  0
  8  9  1  0
  9 10  1  0
 10 11  1  0
 11 12  1  0
 12 13  2  0
 12 14  1  0
 14 15  2  0
 15 16  1  0
 16 17  2  0
 17 18  1  0
 18 19  2  0
 19 20  1  0
 20 21  2  0
 10 22  2  0
  6 23  1  0
 23 24  2  0
 24  3  1  0
 22  7  1  0
 20 11  1  0
 19 14  1  0
M  END
>  <assay_chembl_id>  (609) 
CHEMBL3997084

>  <assay_description>  (609) 
Antagonist activity at AR T877A mutant in human LNCAP cells assessed as inhibition of DHT-induced proliferation after 48 hrs by MTT assay

>  <parent_molecule_chembl_id>  (609) 
CHEMBL4103425

>  <canonical_smiles>  (609) 
N#Cc1ccc(-c2csc(N3C(=O)c4ccccc4C3=O)n2)cc1

>  <standard_type>  (609) 
IC50

>  <standard_relation>  (609) 
=

>  <standard_value>  (609) 
10960.0

>  <standard_units>  (609) 
nM

>  <target_pref_name>  (609) 
Androgen Receptor

>  <target_chembl_id>  (609) 
CHEMBL1871

>  <target_organism>  (609) 
Homo sapiens

>  <pchembl_median>  (609) 
6.745

$$$$
CHEMBL4091358
     RDKit          2D

 24 27  0  0  0  0  0  0  0  0999 V2000
    3.6666  -13.6400    0.0000 C   0  0  0  0  0  0  0  0  0  0  0  0
    4.2767  -12.2697    0.0000 O   0  0  0  0  0  0  0  0  0  0  0  0
    3.3950  -11.0561    0.0000 C   0  0  0  0  0  0  0  0  0  0  0  0
    1.9033  -11.2129    0.0000 C   0  0  0  0  0  0  0  0  0  0  0  0
    1.0216   -9.9994    0.0000 C   0  0  0  0  0  0  0  0  0  0  0  0
    1.6317   -8.6291    0.0000 C   0  0  0  0  0  0  0  0  0  0  0  0
    0.7500   -7.4156    0.0000 C   0  0  0  0  0  0  0  0  0  0  0  0
   -0.7500   -7.4156    0.0000 C   0  0  0  0  0  0  0  0  0  0  0  0
   -1.2135   -5.9890    0.0000 S   0  0  0  0  0  0  0  0  0  0  0  0
   -0.0000   -5.1073    0.0000 C   0  0  0  0  0  0  0  0  0  0  0  0
   -0.0000   -3.6073    0.0000 N   0  0  0  0  0  0  0  0  0  0  0  0
    1.2135   -2.7256    0.0000 C   0  0  0  0  0  0  0  0  0  0  0  0
    2.6401   -3.1891    0.0000 O   0  0  0  0  0  0  0  0  0  0  0  0
    0.7500   -1.2990    0.0000 C   0  0  0  0  0  0  0  0  0  0  0  0
    1.5000    0.0000    0.0000 C   0  0  0  0  0  0  0  0  0  0  0  0
    0.7500    1.2990    0.0000 C   0  0  0  0  0  0  0  0  0  0  0  0
   -0.7500    1.2990    0.0000 C   0  0  0  0  0  0  0  0  0  0  0  0
   -1.5000    0.0000    0.0000 C   0  0  0  0  0  0  0  0  0  0  0  0
   -0.7500   -1.2990    0.0000 C   0  0  0  0  0  0  0  0  0  0  0  0
   -1.2135   -2.7256    0.0000 C   0  0  0  0  0  0  0  0  0  0  0  0
   -2.6401   -3.1891    0.0000 O   0  0  0  0  0  0  0  0  0  0  0  0
    1.2135   -5.9890    0.0000 N   0  0  0  0  0  0  0  0  0  0  0  0
    3.1235   -8.4723    0.0000 C   0  0  0  0  0  0  0  0  0  0  0  0
    4.0051   -9.6858    0.0000 C   0  0  0  0  0  0  0  0  0  0  0  0
  1  2  1  0
  2  3  1  0
  3  4  2  0
  4  5  1  0
  5  6  2  0
  6  7  1  0
  7  8  2  0
  8  9  1  0
  9 10  1  0
 10 11  1  0
 11 12  1  0
 12 13  2  0
 12 14  1  0
 14 15  2  0
 15 16  1  0
 16 17  2  0
 17 18  1  0
 18 19  2  0
 19 20  1  0
 20 21  2  0
 10 22  2  0
  6 23  1  0
 23 24  2  0
 24  3  1  0
 22  7  1  0
 20 11  1  0
 19 14  1  0
M  END
>  <assay_chembl_id>  (610) 
CHEMBL3997084

>  <assay_description>  (610) 
Antagonist activity at AR T877A mutant in human LNCAP cells assessed as inhibition of DHT-induced proliferation after 48 hrs by MTT assay

>  <parent_molecule_chembl_id>  (610) 
CHEMBL4091358

>  <canonical_smiles>  (610) 
COc1ccc(-c2csc(N3C(=O)c4ccccc4C3=O)n2)cc1

>  <standard_type>  (610) 
IC50

>  <standard_relation>  (610) 
=

>  <standard_value>  (610) 
13670.0

>  <standard_units>  (610) 
nM

>  <target_pref_name>  (610) 
Androgen Receptor

>  <target_chembl_id>  (610) 
CHEMBL1871

>  <target_organism>  (610) 
Homo sapiens

>  <pchembl_median>  (610) 
7.125

$$$$
CHEMBL4070425
     RDKit          2D

 23 26  0  0  0  0  0  0  0  0999 V2000
    4.2767  -12.2697    0.0000 C   0  0  0  0  0  0  0  0  0  0  0  0
    3.3950  -11.0561    0.0000 C   0  0  0  0  0  0  0  0  0  0  0  0
    1.9033  -11.2129    0.0000 C   0  0  0  0  0  0  0  0  0  0  0  0
    1.0216   -9.9994    0.0000 C   0  0  0  0  0  0  0  0  0  0  0  0
    1.6317   -8.6291    0.0000 C   0  0  0  0  0  0  0  0  0  0  0  0
    0.7500   -7.4156    0.0000 C   0  0  0  0  0  0  0  0  0  0  0  0
   -0.7500   -7.4156    0.0000 C   0  0  0  0  0  0  0  0  0  0  0  0
   -1.2135   -5.9890    0.0000 S   0  0  0  0  0  0  0  0  0  0  0  0
   -0.0000   -5.1073    0.0000 C   0  0  0  0  0  0  0  0  0  0  0  0
   -0.0000   -3.6073    0.0000 N   0  0  0  0  0  0  0  0  0  0  0  0
    1.2135   -2.7256    0.0000 C   0  0  0  0  0  0  0  0  0  0  0  0
    2.6401   -3.1891    0.0000 O   0  0  0  0  0  0  0  0  0  0  0  0
    0.7500   -1.2990    0.0000 C   0  0  0  0  0  0  0  0  0  0  0  0
    1.5000    0.0000    0.0000 C   0  0  0  0  0  0  0  0  0  0  0  0
    0.7500    1.2990    0.0000 C   0  0  0  0  0  0  0  0  0  0  0  0
   -0.7500    1.2990    0.0000 C   0  0  0  0  0  0  0  0  0  0  0  0
   -1.5000    0.0000    0.0000 C   0  0  0  0  0  0  0  0  0  0  0  0
   -0.7500   -1.2990    0.0000 C   0  0  0  0  0  0  0  0  0  0  0  0
   -1.2135   -2.7256    0.0000 C   0  0  0  0  0  0  0  0  0  0  0  0
   -2.6401   -3.1891    0.0000 O   0  0  0  0  0  0  0  0  0  0  0  0
    1.2135   -5.9890    0.0000 N   0  0  0  0  0  0  0  0  0  0  0  0
    3.1235   -8.4723    0.0000 C   0  0  0  0  0  0  0  0  0  0  0  0
    4.0051   -9.6858    0.0000 C   0  0  0  0  0  0  0  0  0  0  0  0
  1  2  1  0
  2  3  2  0
  3  4  1  0
  4  5  2  0
  5  6  1  0
  6  7  2  0
  7  8  1  0
  8  9  1  0
  9 10  1  0
 10 11  1  0
 11 12  2  0
 11 13  1  0
 13 14  2  0
 14 15  1  0
 15 16  2  0
 16 17  1  0
 17 18  2  0
 18 19  1  0
 19 20  2  0
  9 21  2  0
  5 22  1  0
 22 23  2  0
 23  2  1  0
 21  6  1  0
 19 10  1  0
 18 13  1  0
M  END
>  <assay_chembl_id>  (611) 
CHEMBL3997084

>  <assay_description>  (611) 
Antagonist activity at AR T877A mutant in human LNCAP cells assessed as inhibition of DHT-induced proliferation after 48 hrs by MTT assay

>  <parent_molecule_chembl_id>  (611) 
CHEMBL4070425

>  <canonical_smiles>  (611) 
Cc1ccc(-c2csc(N3C(=O)c4ccccc4C3=O)n2)cc1

>  <standard_type>  (611) 
IC50

>  <standard_relation>  (611) 
=

>  <standard_value>  (611) 
29040.0

>  <standard_units>  (611) 
nM

>  <target_pref_name>  (611) 
Androgen Receptor

>  <target_chembl_id>  (611) 
CHEMBL1871

>  <target_organism>  (611) 
Homo sapiens

>  <pchembl_median>  (611) 
7.13

$$$$
CHEMBL2356368
     RDKit          2D

 23 26  0  0  0  0  0  0  0  0999 V2000
    2.6401   -3.1891    0.0000 O   0  0  0  0  0  0  0  0  0  0  0  0
    1.2135   -2.7256    0.0000 C   0  0  0  0  0  0  0  0  0  0  0  0
    0.7500   -1.2990    0.0000 C   0  0  0  0  0  0  0  0  0  0  0  0
    1.5000    0.0000    0.0000 C   0  0  0  0  0  0  0  0  0  0  0  0
    0.7500    1.2990    0.0000 C   0  0  0  0  0  0  0  0  0  0  0  0
   -0.7500    1.2990    0.0000 C   0  0  0  0  0  0  0  0  0  0  0  0
   -1.5000    0.0000    0.0000 C   0  0  0  0  0  0  0  0  0  0  0  0
   -0.7500   -1.2990    0.0000 C   0  0  0  0  0  0  0  0  0  0  0  0
   -1.2135   -2.7256    0.0000 C   0  0  0  0  0  0  0  0  0  0  0  0
   -2.6401   -3.1891    0.0000 O   0  0  0  0  0  0  0  0  0  0  0  0
   -0.0000   -3.6073    0.0000 N   0  0  0  0  0  0  0  0  0  0  0  0
   -0.0000   -5.1073    0.0000 C   0  0  0  0  0  0  0  0  0  0  0  0
    1.2135   -5.9890    0.0000 N   0  0  0  0  0  0  0  0  0  0  0  0
    0.7500   -7.4156    0.0000 C   0  0  0  0  0  0  0  0  0  0  0  0
    1.6317   -8.6291    0.0000 C   0  0  0  0  0  0  0  0  0  0  0  0
    1.0216   -9.9994    0.0000 C   0  0  0  0  0  0  0  0  0  0  0  0
    1.9033  -11.2129    0.0000 C   0  0  0  0  0  0  0  0  0  0  0  0
    3.3950  -11.0561    0.0000 C   0  0  0  0  0  0  0  0  0  0  0  0
    4.2767  -12.2697    0.0000 Cl  0  0  0  0  0  0  0  0  0  0  0  0
    4.0051   -9.6858    0.0000 C   0  0  0  0  0  0  0  0  0  0  0  0
    3.1235   -8.4723    0.0000 C   0  0  0  0  0  0  0  0  0  0  0  0
   -0.7500   -7.4156    0.0000 C   0  0  0  0  0  0  0  0  0  0  0  0
   -1.2135   -5.9890    0.0000 S   0  0  0  0  0  0  0  0  0  0  0  0
  1  2  2  0
  2  3  1  0
  3  4  2  0
  4  5  1  0
  5  6  2  0
  6  7  1  0
  7  8  2  0
  8  9  1  0
  9 10  2  0
  9 11  1  0
 11 12  1  0
 12 13  2  0
 13 14  1  0
 14 15  1  0
 15 16  2  0
 16 17  1  0
 17 18  2  0
 18 19  1  0
 18 20  1  0
 20 21  2  0
 14 22  2  0
 22 23  1  0
 11  2  1  0
 23 12  1  0
  8  3  1  0
 21 15  1  0
M  END
>  <assay_chembl_id>  (612) 
CHEMBL3997084

>  <assay_description>  (612) 
Antagonist activity at AR T877A mutant in human LNCAP cells assessed as inhibition of DHT-induced proliferation after 48 hrs by MTT assay

>  <parent_molecule_chembl_id>  (612) 
CHEMBL2356368

>  <canonical_smiles>  (612) 
O=C1c2ccccc2C(=O)N1c1nc(-c2ccc(Cl)cc2)cs1

>  <standard_type>  (612) 
IC50

>  <standard_relation>  (612) 
=

>  <standard_value>  (612) 
26240.0

>  <standard_units>  (612) 
nM

>  <target_pref_name>  (612) 
Androgen Receptor

>  <target_chembl_id>  (612) 
CHEMBL1871

>  <target_organism>  (612) 
Homo sapiens

>  <pchembl_median>  (612) 
7.4

$$$$
CHEMBL2357456
     RDKit          2D

 23 26  0  0  0  0  0  0  0  0999 V2000
    2.6401   -3.1891    0.0000 O   0  0  0  0  0  0  0  0  0  0  0  0
    1.2135   -2.7256    0.0000 C   0  0  0  0  0  0  0  0  0  0  0  0
    0.7500   -1.2990    0.0000 C   0  0  0  0  0  0  0  0  0  0  0  0
    1.5000    0.0000    0.0000 C   0  0  0  0  0  0  0  0  0  0  0  0
    0.7500    1.2990    0.0000 C   0  0  0  0  0  0  0  0  0  0  0  0
   -0.7500    1.2990    0.0000 C   0  0  0  0  0  0  0  0  0  0  0  0
   -1.5000    0.0000    0.0000 C   0  0  0  0  0  0  0  0  0  0  0  0
   -0.7500   -1.2990    0.0000 C   0  0  0  0  0  0  0  0  0  0  0  0
   -1.2135   -2.7256    0.0000 C   0  0  0  0  0  0  0  0  0  0  0  0
   -2.6401   -3.1891    0.0000 O   0  0  0  0  0  0  0  0  0  0  0  0
   -0.0000   -3.6073    0.0000 N   0  0  0  0  0  0  0  0  0  0  0  0
   -0.0000   -5.1073    0.0000 C   0  0  0  0  0  0  0  0  0  0  0  0
    1.2135   -5.9890    0.0000 N   0  0  0  0  0  0  0  0  0  0  0  0
    0.7500   -7.4156    0.0000 C   0  0  0  0  0  0  0  0  0  0  0  0
    1.6317   -8.6291    0.0000 C   0  0  0  0  0  0  0  0  0  0  0  0
    1.0216   -9.9994    0.0000 C   0  0  0  0  0  0  0  0  0  0  0  0
    1.9033  -11.2129    0.0000 C   0  0  0  0  0  0  0  0  0  0  0  0
    3.3950  -11.0561    0.0000 C   0  0  0  0  0  0  0  0  0  0  0  0
    4.2767  -12.2697    0.0000 F   0  0  0  0  0  0  0  0  0  0  0  0
    4.0051   -9.6858    0.0000 C   0  0  0  0  0  0  0  0  0  0  0  0
    3.1235   -8.4723    0.0000 C   0  0  0  0  0  0  0  0  0  0  0  0
   -0.7500   -7.4156    0.0000 C   0  0  0  0  0  0  0  0  0  0  0  0
   -1.2135   -5.9890    0.0000 S   0  0  0  0  0  0  0  0  0  0  0  0
  1  2  2  0
  2  3  1  0
  3  4  2  0
  4  5  1  0
  5  6  2  0
  6  7  1  0
  7  8  2  0
  8  9  1  0
  9 10  2  0
  9 11  1  0
 11 12  1  0
 12 13  2  0
 13 14  1  0
 14 15  1  0
 15 16  2  0
 16 17  1  0
 17 18  2  0
 18 19  1  0
 18 20  1  0
 20 21  2  0
 14 22  2  0
 22 23  1  0
 11  2  1  0
 23 12  1  0
  8  3  1  0
 21 15  1  0
M  END
>  <assay_chembl_id>  (613) 
CHEMBL3997084

>  <assay_description>  (613) 
Antagonist activity at AR T877A mutant in human LNCAP cells assessed as inhibition of DHT-induced proliferation after 48 hrs by MTT assay

>  <parent_molecule_chembl_id>  (613) 
CHEMBL2357456

>  <canonical_smiles>  (613) 
O=C1c2ccccc2C(=O)N1c1nc(-c2ccc(F)cc2)cs1

>  <standard_type>  (613) 
IC50

>  <standard_relation>  (613) 
=

>  <standard_value>  (613) 
28560.0

>  <standard_units>  (613) 
nM

>  <target_pref_name>  (613) 
Androgen Receptor

>  <target_chembl_id>  (613) 
CHEMBL1871

>  <target_organism>  (613) 
Homo sapiens

>  <pchembl_median>  (613) 
7.68

$$$$
CHEMBL4073161
     RDKit          2D

 22 25  0  0  0  0  0  0  0  0999 V2000
    2.6401   -3.1891    0.0000 O   0  0  0  0  0  0  0  0  0  0  0  0
    1.2135   -2.7256    0.0000 C   0  0  0  0  0  0  0  0  0  0  0  0
    0.7500   -1.2990    0.0000 C   0  0  0  0  0  0  0  0  0  0  0  0
    1.5000    0.0000    0.0000 C   0  0  0  0  0  0  0  0  0  0  0  0
    0.7500    1.2990    0.0000 C   0  0  0  0  0  0  0  0  0  0  0  0
   -0.7500    1.2990    0.0000 C   0  0  0  0  0  0  0  0  0  0  0  0
   -1.5000    0.0000    0.0000 C   0  0  0  0  0  0  0  0  0  0  0  0
   -0.7500   -1.2990    0.0000 C   0  0  0  0  0  0  0  0  0  0  0  0
   -1.2135   -2.7256    0.0000 C   0  0  0  0  0  0  0  0  0  0  0  0
   -2.6401   -3.1891    0.0000 O   0  0  0  0  0  0  0  0  0  0  0  0
   -0.0000   -3.6073    0.0000 N   0  0  0  0  0  0  0  0  0  0  0  0
   -0.0000   -5.1073    0.0000 C   0  0  0  0  0  0  0  0  0  0  0  0
    1.2135   -5.9890    0.0000 N   0  0  0  0  0  0  0  0  0  0  0  0
    0.7500   -7.4156    0.0000 C   0  0  0  0  0  0  0  0  0  0  0  0
    1.6317   -8.6291    0.0000 C   0  0  0  0  0  0  0  0  0  0  0  0
    1.0216   -9.9994    0.0000 C   0  0  0  0  0  0  0  0  0  0  0  0
    1.9033  -11.2129    0.0000 C   0  0  0  0  0  0  0  0  0  0  0  0
    3.3950  -11.0561    0.0000 C   0  0  0  0  0  0  0  0  0  0  0  0
    4.0051   -9.6858    0.0000 C   0  0  0  0  0  0  0  0  0  0  0  0
    3.1235   -8.4723    0.0000 C   0  0  0  0  0  0  0  0  0  0  0  0
   -0.7500   -7.4156    0.0000 C   0  0  0  0  0  0  0  0  0  0  0  0
   -1.2135   -5.9890    0.0000 S   0  0  0  0  0  0  0  0  0  0  0  0
  1  2  2  0
  2  3  1  0
  3  4  2  0
  4  5  1  0
  5  6  2  0
  6  7  1  0
  7  8  2  0
  8  9  1  0
  9 10  2  0
  9 11  1  0
 11 12  1  0
 12 13  2  0
 13 14  1  0
 14 15  1  0
 15 16  2  0
 16 17  1  0
 17 18  2  0
 18 19  1  0
 19 20  2  0
 14 21  2  0
 21 22  1  0
 11  2  1  0
 22 12  1  0
  8  3  1  0
 20 15  1  0
M  END
>  <assay_chembl_id>  (614) 
CHEMBL3997084

>  <assay_description>  (614) 
Antagonist activity at AR T877A mutant in human LNCAP cells assessed as inhibition of DHT-induced proliferation after 48 hrs by MTT assay

>  <parent_molecule_chembl_id>  (614) 
CHEMBL4073161

>  <canonical_smiles>  (614) 
O=C1c2ccccc2C(=O)N1c1nc(-c2ccccc2)cs1

>  <standard_type>  (614) 
IC50

>  <standard_relation>  (614) 
=

>  <standard_value>  (614) 
36840.0

>  <standard_units>  (614) 
nM

>  <target_pref_name>  (614) 
Androgen Receptor

>  <target_chembl_id>  (614) 
CHEMBL1871

>  <target_organism>  (614) 
Homo sapiens

>  <pchembl_median>  (614) 
6.67

$$$$
CHEMBL4068008
     RDKit          2D

 26 28  0  0  0  0  0  0  0  0999 V2000
    5.2500   -1.2990    0.0000 C   0  0  0  0  0  0  0  0  0  0  0  0
    3.7500   -1.2990    0.0000 C   0  0  0  0  0  0  0  0  0  0  0  0
    3.0000    0.0000    0.0000 O   0  0  0  0  0  0  0  0  0  0  0  0
    1.5000    0.0000    0.0000 C   0  0  0  0  0  0  0  0  0  0  0  0
    0.7500   -1.2990    0.0000 N   0  0  0  0  0  0  0  0  0  0  0  0
   -0.7500   -1.2990    0.0000 C   0  0  0  0  0  0  0  0  0  0  0  0
   -1.5000    0.0000    0.0000 C   0  0  0  0  0  0  0  0  0  0  0  0
   -0.7500    1.2990    0.0000 C   0  0  0  0  0  0  0  0  0  0  0  0
    0.7500    1.2990    0.0000 C   0  0  0  0  0  0  0  0  0  0  0  0
    1.5000    2.5981    0.0000 C   0  0  0  0  0  0  0  0  0  0  0  0
    3.0000    2.5981    0.0000 C   0  0  0  0  0  0  0  0  0  0  0  0
    3.7500    1.2990    0.0000 C   0  0  0  0  0  0  0  0  0  0  0  0
    5.2500    1.2990    0.0000 C   0  0  0  0  0  0  0  0  0  0  0  0
    6.0000    2.5981    0.0000 C   0  0  0  0  0  0  0  0  0  0  0  0
    7.5000    2.5981    0.0000 C   0  0  0  0  0  0  0  0  0  0  0  0
    9.0000    2.5981    0.0000 N   0  0  0  0  0  0  0  0  0  0  0  0
    5.2500    3.8971    0.0000 C   0  0  0  0  0  0  0  0  0  0  0  0
    3.7500    3.8971    0.0000 C   0  0  0  0  0  0  0  0  0  0  0  0
    3.0000    5.1962    0.0000 O   0  0  0  0  0  0  0  0  0  0  0  0
    3.7500    6.4952    0.0000 C   0  0  0  0  0  0  0  0  0  0  0  0
    0.7500    3.8971    0.0000 C   0  0  0  0  0  0  0  0  0  0  0  0
    1.5000    5.1962    0.0000 C   0  0  0  0  0  0  0  0  0  0  0  0
    2.2500    6.4952    0.0000 N   0  0  0  0  0  0  0  0  0  0  0  0
   -0.7500    3.8971    0.0000 C   0  0  0  0  0  0  0  0  0  0  0  0
   -1.5000    5.1962    0.0000 C   0  0  0  0  0  0  0  0  0  0  0  0
   -1.5000    2.5981    0.0000 N   0  0  0  0  0  0  0  0  0  0  0  0
  1  2  1  0
  2  3  1  0
  3  4  1  0
  4  5  2  0
  5  6  1  0
  6  7  2  0
  7  8  1  0
  8  9  2  0
  9 10  1  0
 10 11  1  1
 11 12  2  0
 12 13  1  0
 13 14  2  0
 14 15  1  0
 15 16  3  0
 14 17  1  0
 17 18  2  0
 18 19  1  0
 19 20  1  0
 10 21  1  0
 21 22  1  0
 22 23  3  0
 21 24  2  0
 24 25  1  0
 24 26  1  0
  9  4  1  0
 18 11  1  0
 26  8  1  0
M  END
>  <assay_chembl_id>  (615) 
CHEMBL4008020

>  <assay_description>  (615) 
Antagonist activity at GAL4-fused human AR LBD (667 to 919 residues) expressed in CHO-K1 cells assessed as inhibition of dihydrotestosterone-induced transactivation activity after 5 to 6 hrs by luciferase reporter gene assay

>  <parent_molecule_chembl_id>  (615) 
CHEMBL4068008

>  <canonical_smiles>  (615) 
CCOc1nccc2c1[C@H](c1ccc(C#N)cc1OC)C(C#N)=C(C)N2

>  <standard_type>  (615) 
IC50

>  <standard_relation>  (615) 
=

>  <standard_value>  (615) 
2800.0

>  <standard_units>  (615) 
nM

>  <target_pref_name>  (615) 
Androgen Receptor

>  <target_chembl_id>  (615) 
CHEMBL1871

>  <target_organism>  (615) 
Homo sapiens

>  <pchembl_median>  (615) 
6.25

$$$$
CHEMBL4096901
     RDKit          2D

 27 29  0  0  0  0  0  0  0  0999 V2000
    5.2500   -1.2990    0.0000 C   0  0  0  0  0  0  0  0  0  0  0  0
    3.7500   -1.2990    0.0000 C   0  0  0  0  0  0  0  0  0  0  0  0
    3.0000    0.0000    0.0000 O   0  0  0  0  0  0  0  0  0  0  0  0
    1.5000    0.0000    0.0000 C   0  0  0  0  0  0  0  0  0  0  0  0
    0.7500   -1.2990    0.0000 N   0  0  0  0  0  0  0  0  0  0  0  0
   -0.7500   -1.2990    0.0000 C   0  0  0  0  0  0  0  0  0  0  0  0
   -1.5000    0.0000    0.0000 C   0  0  0  0  0  0  0  0  0  0  0  0
   -3.0000    0.0000    0.0000 C   0  0  0  0  0  0  0  0  0  0  0  0
   -0.7500    1.2990    0.0000 C   0  0  0  0  0  0  0  0  0  0  0  0
    0.7500    1.2990    0.0000 C   0  0  0  0  0  0  0  0  0  0  0  0
    1.5000    2.5981    0.0000 C   0  0  0  0  0  0  0  0  0  0  0  0
    3.0000    2.5981    0.0000 C   0  0  0  0  0  0  0  0  0  0  0  0
    3.7500    1.2990    0.0000 C   0  0  0  0  0  0  0  0  0  0  0  0
    5.2500    1.2990    0.0000 C   0  0  0  0  0  0  0  0  0  0  0  0
    6.0000    2.5981    0.0000 C   0  0  0  0  0  0  0  0  0  0  0  0
    7.5000    2.5981    0.0000 C   0  0  0  0  0  0  0  0  0  0  0  0
    9.0000    2.5981    0.0000 N   0  0  0  0  0  0  0  0  0  0  0  0
    5.2500    3.8971    0.0000 C   0  0  0  0  0  0  0  0  0  0  0  0
    3.7500    3.8971    0.0000 C   0  0  0  0  0  0  0  0  0  0  0  0
    3.0000    5.1962    0.0000 O   0  0  0  0  0  0  0  0  0  0  0  0
    3.7500    6.4952    0.0000 C   0  0  0  0  0  0  0  0  0  0  0  0
    0.7500    3.8971    0.0000 C   0  0  0  0  0  0  0  0  0  0  0  0
    1.5000    5.1962    0.0000 C   0  0  0  0  0  0  0  0  0  0  0  0
    2.2500    6.4952    0.0000 N   0  0  0  0  0  0  0  0  0  0  0  0
   -0.7500    3.8971    0.0000 C   0  0  0  0  0  0  0  0  0  0  0  0
   -1.5000    5.1962    0.0000 C   0  0  0  0  0  0  0  0  0  0  0  0
   -1.5000    2.5981    0.0000 N   0  0  0  0  0  0  0  0  0  0  0  0
  1  2  1  0
  2  3  1  0
  3  4  1  0
  4  5  2  0
  5  6  1  0
  6  7  2  0
  7  8  1  0
  7  9  1  0
  9 10  2  0
 10 11  1  0
 11 12  1  1
 12 13  2  0
 13 14  1  0
 14 15  2  0
 15 16  1  0
 16 17  3  0
 15 18  1  0
 18 19  2  0
 19 20  1  0
 20 21  1  0
 11 22  1  0
 22 23  1  0
 23 24  3  0
 22 25  2  0
 25 26  1  0
 25 27  1  0
 10  4  1  0
 19 12  1  0
 27  9  1  0
M  END
>  <assay_chembl_id>  (616) 
CHEMBL4008020

>  <assay_description>  (616) 
Antagonist activity at GAL4-fused human AR LBD (667 to 919 residues) expressed in CHO-K1 cells assessed as inhibition of dihydrotestosterone-induced transactivation activity after 5 to 6 hrs by luciferase reporter gene assay

>  <parent_molecule_chembl_id>  (616) 
CHEMBL4096901

>  <canonical_smiles>  (616) 
CCOc1ncc(C)c2c1[C@H](c1ccc(C#N)cc1OC)C(C#N)=C(C)N2

>  <standard_type>  (616) 
IC50

>  <standard_relation>  (616) 
=

>  <standard_value>  (616) 
2400.0

>  <standard_units>  (616) 
nM

>  <target_pref_name>  (616) 
Androgen Receptor

>  <target_chembl_id>  (616) 
CHEMBL1871

>  <target_organism>  (616) 
Homo sapiens

>  <pchembl_median>  (616) 
5.99

$$$$
CHEMBL4060271
     RDKit          2D

 18 19  0  0  0  0  0  0  0  0999 V2000
    3.0000    0.0000    0.0000 C   0  0  0  0  0  0  0  0  0  0  0  0
    1.5000    0.0000    0.0000 C   0  0  0  0  0  0  0  0  0  0  0  0
    0.7500   -1.2990    0.0000 C   0  0  0  0  0  0  0  0  0  0  0  0
    1.5000   -2.5981    0.0000 N   0  0  0  0  0  0  0  0  0  0  0  0
    2.9918   -2.7549    0.0000 C   0  0  0  0  0  0  0  0  0  0  0  0
    3.3037   -4.2221    0.0000 C   0  0  0  0  0  0  0  0  0  0  0  0
    2.0046   -4.9721    0.0000 C   0  0  0  0  0  0  0  0  0  0  0  0
    2.8863   -6.1856    0.0000 C   0  0  0  0  0  0  0  0  0  0  0  0
    0.8899   -5.9758    0.0000 O   0  0  0  0  0  0  0  0  0  0  0  0
    0.8899   -3.9684    0.0000 C   0  0  0  0  0  0  0  0  0  0  0  0
   -0.5773   -4.2803    0.0000 C   0  0  0  0  0  0  0  0  0  0  0  0
   -0.7500   -1.2990    0.0000 C   0  0  0  0  0  0  0  0  0  0  0  0
   -1.5000    0.0000    0.0000 C   0  0  0  0  0  0  0  0  0  0  0  0
   -0.7500    1.2990    0.0000 C   0  0  0  0  0  0  0  0  0  0  0  0
   -1.5000    2.5981    0.0000 C   0  0  0  0  0  0  0  0  0  0  0  0
   -2.2500    3.8971    0.0000 N   0  0  0  0  0  0  0  0  0  0  0  0
    0.7500    1.2990    0.0000 C   0  0  0  0  0  0  0  0  0  0  0  0
    1.5000    2.5981    0.0000 Cl  0  0  0  0  0  0  0  0  0  0  0  0
  1  2  1  0
  2  3  2  0
  3  4  1  0
  4  5  1  0
  5  6  1  0
  6  7  1  0
  7  8  1  1
  7  9  1  0
  7 10  1  0
 10 11  1  6
  3 12  1  0
 12 13  2  0
 13 14  1  0
 14 15  1  0
 15 16  3  0
 14 17  2  0
 17 18  1  0
 17  2  1  0
 10  4  1  0
M  END
>  <assay_chembl_id>  (617) 
CHEMBL4012500

>  <assay_description>  (617) 
Displacement of [17-alpha-methyl-H-3] mibolerone from wild-type androgen receptor (unknown origin) expressed in Freestyle293F cells measured after 3 hrs dextran/charcoal based method

>  <parent_molecule_chembl_id>  (617) 
CHEMBL4060271

>  <canonical_smiles>  (617) 
Cc1c(N2CC[C@](C)(O)[C@@H]2C)ccc(C#N)c1Cl

>  <standard_type>  (617) 
IC50

>  <standard_relation>  (617) 
=

>  <standard_value>  (617) 
0.49

>  <standard_units>  (617) 
nM

>  <target_pref_name>  (617) 
Androgen Receptor

>  <target_chembl_id>  (617) 
CHEMBL1871

>  <target_organism>  (617) 
Homo sapiens

>  <pchembl_median>  (617) 
7.5

$$$$
CHEMBL4090028
     RDKit          2D

 17 18  0  0  0  0  0  0  0  0999 V2000
    3.0000    0.0000    0.0000 C   0  0  0  0  0  0  0  0  0  0  0  0
    1.5000    0.0000    0.0000 C   0  0  0  0  0  0  0  0  0  0  0  0
    0.7500   -1.2990    0.0000 C   0  0  0  0  0  0  0  0  0  0  0  0
    1.5000   -2.5981    0.0000 N   0  0  0  0  0  0  0  0  0  0  0  0
    2.9918   -2.7549    0.0000 C   0  0  0  0  0  0  0  0  0  0  0  0
    3.3037   -4.2221    0.0000 C   0  0  0  0  0  0  0  0  0  0  0  0
    2.0046   -4.9721    0.0000 C   0  0  0  0  0  0  0  0  0  0  0  0
    1.8478   -6.4639    0.0000 O   0  0  0  0  0  0  0  0  0  0  0  0
    0.8899   -3.9684    0.0000 C   0  0  0  0  0  0  0  0  0  0  0  0
   -0.5773   -4.2803    0.0000 C   0  0  0  0  0  0  0  0  0  0  0  0
   -0.7500   -1.2990    0.0000 C   0  0  0  0  0  0  0  0  0  0  0  0
   -1.5000    0.0000    0.0000 C   0  0  0  0  0  0  0  0  0  0  0  0
   -0.7500    1.2990    0.0000 C   0  0  0  0  0  0  0  0  0  0  0  0
   -1.5000    2.5981    0.0000 C   0  0  0  0  0  0  0  0  0  0  0  0
   -2.2500    3.8971    0.0000 N   0  0  0  0  0  0  0  0  0  0  0  0
    0.7500    1.2990    0.0000 C   0  0  0  0  0  0  0  0  0  0  0  0
    1.5000    2.5981    0.0000 Cl  0  0  0  0  0  0  0  0  0  0  0  0
  1  2  1  0
  2  3  2  0
  3  4  1  0
  4  5  1  0
  5  6  1  0
  6  7  1  0
  7  8  1  6
  7  9  1  0
  9 10  1  6
  3 11  1  0
 11 12  2  0
 12 13  1  0
 13 14  1  0
 14 15  3  0
 13 16  2  0
 16 17  1  0
 16  2  1  0
  9  4  1  0
M  END
>  <assay_chembl_id>  (618) 
CHEMBL4012500

>  <assay_description>  (618) 
Displacement of [17-alpha-methyl-H-3] mibolerone from wild-type androgen receptor (unknown origin) expressed in Freestyle293F cells measured after 3 hrs dextran/charcoal based method

>  <parent_molecule_chembl_id>  (618) 
CHEMBL4090028

>  <canonical_smiles>  (618) 
Cc1c(N2CC[C@H](O)[C@@H]2C)ccc(C#N)c1Cl

>  <standard_type>  (618) 
IC50

>  <standard_relation>  (618) 
=

>  <standard_value>  (618) 
0.72

>  <standard_units>  (618) 
nM

>  <target_pref_name>  (618) 
Androgen Receptor

>  <target_chembl_id>  (618) 
CHEMBL1871

>  <target_organism>  (618) 
Homo sapiens

>  <pchembl_median>  (618) 
5.515

$$$$
CHEMBL4068946
     RDKit          2D

 17 18  0  0  0  0  0  0  0  0999 V2000
    3.9955   -1.6402    0.0000 C   0  0  0  0  0  0  0  0  0  0  0  0
    2.9918   -2.7549    0.0000 C   0  0  0  0  0  0  0  0  0  0  0  0
    1.5000   -2.5981    0.0000 N   0  0  0  0  0  0  0  0  0  0  0  0
    0.7500   -1.2990    0.0000 C   0  0  0  0  0  0  0  0  0  0  0  0
    1.5000    0.0000    0.0000 C   0  0  0  0  0  0  0  0  0  0  0  0
    0.7500    1.2990    0.0000 C   0  0  0  0  0  0  0  0  0  0  0  0
   -0.7500    1.2990    0.0000 C   0  0  0  0  0  0  0  0  0  0  0  0
   -1.5000    2.5981    0.0000 C   0  0  0  0  0  0  0  0  0  0  0  0
   -2.2500    3.8971    0.0000 N   0  0  0  0  0  0  0  0  0  0  0  0
   -1.5000    0.0000    0.0000 C   0  0  0  0  0  0  0  0  0  0  0  0
   -3.0000    0.0000    0.0000 Cl  0  0  0  0  0  0  0  0  0  0  0  0
   -0.7500   -1.2990    0.0000 C   0  0  0  0  0  0  0  0  0  0  0  0
    0.8899   -3.9684    0.0000 C   0  0  0  0  0  0  0  0  0  0  0  0
    2.0046   -4.9721    0.0000 C   0  0  0  0  0  0  0  0  0  0  0  0
    3.3037   -4.2221    0.0000 C   0  0  0  0  0  0  0  0  0  0  0  0
    4.7302   -3.7586    0.0000 C   0  0  0  0  0  0  0  0  0  0  0  0
    3.9138   -5.5924    0.0000 O   0  0  0  0  0  0  0  0  0  0  0  0
  2  1  1  1
  2  3  1  0
  3  4  1  0
  4  5  2  0
  5  6  1  0
  6  7  2  0
  7  8  1  0
  8  9  3  0
  7 10  1  0
 10 11  1  0
 10 12  2  0
  3 13  1  0
 13 14  1  0
 14 15  1  0
 15 16  1  6
 15 17  1  0
 15  2  1  0
 12  4  1  0
M  END
>  <assay_chembl_id>  (619) 
CHEMBL4012500

>  <assay_description>  (619) 
Displacement of [17-alpha-methyl-H-3] mibolerone from wild-type androgen receptor (unknown origin) expressed in Freestyle293F cells measured after 3 hrs dextran/charcoal based method

>  <parent_molecule_chembl_id>  (619) 
CHEMBL4068946

>  <canonical_smiles>  (619) 
C[C@@H]1N(c2ccc(C#N)c(Cl)c2)CC[C@]1(C)O

>  <standard_type>  (619) 
IC50

>  <standard_relation>  (619) 
=

>  <standard_value>  (619) 
0.52

>  <standard_units>  (619) 
nM

>  <target_pref_name>  (619) 
Androgen Receptor

>  <target_chembl_id>  (619) 
CHEMBL1871

>  <target_organism>  (619) 
Homo sapiens

>  <pchembl_median>  (619) 
7.43

$$$$
CHEMBL4092535
     RDKit          2D

 18 19  0  0  0  0  0  0  0  0999 V2000
    3.0000    0.0000    0.0000 C   0  0  0  0  0  0  0  0  0  0  0  0
    1.5000    0.0000    0.0000 C   0  0  0  0  0  0  0  0  0  0  0  0
    0.7500   -1.2990    0.0000 C   0  0  0  0  0  0  0  0  0  0  0  0
    1.5000   -2.5981    0.0000 N   0  0  0  0  0  0  0  0  0  0  0  0
    2.9918   -2.7549    0.0000 C   0  0  0  0  0  0  0  0  0  0  0  0
    3.3037   -4.2221    0.0000 C   0  0  0  0  0  0  0  0  0  0  0  0
    2.0046   -4.9721    0.0000 C   0  0  0  0  0  0  0  0  0  0  0  0
    2.8863   -6.1856    0.0000 C   0  0  0  0  0  0  0  0  0  0  0  0
    0.8899   -5.9758    0.0000 O   0  0  0  0  0  0  0  0  0  0  0  0
    0.8899   -3.9684    0.0000 C   0  0  0  0  0  0  0  0  0  0  0  0
   -0.5773   -4.2803    0.0000 C   0  0  0  0  0  0  0  0  0  0  0  0
   -0.7500   -1.2990    0.0000 C   0  0  0  0  0  0  0  0  0  0  0  0
   -1.5000    0.0000    0.0000 C   0  0  0  0  0  0  0  0  0  0  0  0
   -0.7500    1.2990    0.0000 C   0  0  0  0  0  0  0  0  0  0  0  0
   -1.5000    2.5981    0.0000 C   0  0  0  0  0  0  0  0  0  0  0  0
   -2.2500    3.8971    0.0000 N   0  0  0  0  0  0  0  0  0  0  0  0
    0.7500    1.2990    0.0000 C   0  0  0  0  0  0  0  0  0  0  0  0
    1.5000    2.5981    0.0000 F   0  0  0  0  0  0  0  0  0  0  0  0
  1  2  1  0
  2  3  2  0
  3  4  1  0
  4  5  1  0
  5  6  1  0
  6  7  1  0
  7  8  1  1
  7  9  1  0
  7 10  1  0
 10 11  1  6
  3 12  1  0
 12 13  2  0
 13 14  1  0
 14 15  1  0
 15 16  3  0
 14 17  2  0
 17 18  1  0
 17  2  1  0
 10  4  1  0
M  END
>  <assay_chembl_id>  (620) 
CHEMBL4012500

>  <assay_description>  (620) 
Displacement of [17-alpha-methyl-H-3] mibolerone from wild-type androgen receptor (unknown origin) expressed in Freestyle293F cells measured after 3 hrs dextran/charcoal based method

>  <parent_molecule_chembl_id>  (620) 
CHEMBL4092535

>  <canonical_smiles>  (620) 
Cc1c(N2CC[C@](C)(O)[C@@H]2C)ccc(C#N)c1F

>  <standard_type>  (620) 
IC50

>  <standard_relation>  (620) 
=

>  <standard_value>  (620) 
1.0

>  <standard_units>  (620) 
nM

>  <target_pref_name>  (620) 
Androgen Receptor

>  <target_chembl_id>  (620) 
CHEMBL1871

>  <target_organism>  (620) 
Homo sapiens

>  <pchembl_median>  (620) 
6.9

$$$$
CHEMBL4071751
     RDKit          2D

 17 18  0  0  0  0  0  0  0  0999 V2000
   -0.5773   -4.2803    0.0000 C   0  0  0  0  0  0  0  0  0  0  0  0
    0.8899   -3.9684    0.0000 C   0  0  0  0  0  0  0  0  0  0  0  0
    2.0046   -4.9721    0.0000 C   0  0  0  0  0  0  0  0  0  0  0  0
    1.8478   -6.4639    0.0000 O   0  0  0  0  0  0  0  0  0  0  0  0
    3.3037   -4.2221    0.0000 C   0  0  0  0  0  0  0  0  0  0  0  0
    2.9918   -2.7549    0.0000 C   0  0  0  0  0  0  0  0  0  0  0  0
    3.9955   -1.6402    0.0000 O   0  0  0  0  0  0  0  0  0  0  0  0
    1.5000   -2.5981    0.0000 N   0  0  0  0  0  0  0  0  0  0  0  0
    0.7500   -1.2990    0.0000 C   0  0  0  0  0  0  0  0  0  0  0  0
    1.5000    0.0000    0.0000 C   0  0  0  0  0  0  0  0  0  0  0  0
    0.7500    1.2990    0.0000 C   0  0  0  0  0  0  0  0  0  0  0  0
   -0.7500    1.2990    0.0000 C   0  0  0  0  0  0  0  0  0  0  0  0
   -1.5000    2.5981    0.0000 C   0  0  0  0  0  0  0  0  0  0  0  0
   -2.2500    3.8971    0.0000 N   0  0  0  0  0  0  0  0  0  0  0  0
   -1.5000    0.0000    0.0000 C   0  0  0  0  0  0  0  0  0  0  0  0
   -3.0000    0.0000    0.0000 Cl  0  0  0  0  0  0  0  0  0  0  0  0
   -0.7500   -1.2990    0.0000 C   0  0  0  0  0  0  0  0  0  0  0  0
  2  1  1  6
  2  3  1  0
  3  4  1  6
  3  5  1  0
  5  6  1  0
  6  7  2  0
  6  8  1  0
  8  9  1  0
  9 10  2  0
 10 11  1  0
 11 12  2  0
 12 13  1  0
 13 14  3  0
 12 15  1  0
 15 16  1  0
 15 17  2  0
  8  2  1  0
 17  9  1  0
M  END
>  <assay_chembl_id>  (621) 
CHEMBL4021499

>  <assay_description>  (621) 
Displacement of [3H]mibolerone from human AR after 3 hrs

>  <parent_molecule_chembl_id>  (621) 
CHEMBL4071751

>  <canonical_smiles>  (621) 
C[C@H]1[C@@H](O)CC(=O)N1c1ccc(C#N)c(Cl)c1

>  <standard_type>  (621) 
IC50

>  <standard_relation>  (621) 
=

>  <standard_value>  (621) 
7.8

>  <standard_units>  (621) 
nM

>  <target_pref_name>  (621) 
Androgen Receptor

>  <target_chembl_id>  (621) 
CHEMBL1871

>  <target_organism>  (621) 
Homo sapiens

>  <pchembl_median>  (621) 
5.84

$$$$
CHEMBL4100278
     RDKit          2D

 18 19  0  0  0  0  0  0  0  0999 V2000
    3.0000    0.0000    0.0000 C   0  0  0  0  0  0  0  0  0  0  0  0
    1.5000    0.0000    0.0000 C   0  0  0  0  0  0  0  0  0  0  0  0
    0.7500   -1.2990    0.0000 C   0  0  0  0  0  0  0  0  0  0  0  0
    1.5000   -2.5981    0.0000 N   0  0  0  0  0  0  0  0  0  0  0  0
    2.9918   -2.7549    0.0000 C   0  0  0  0  0  0  0  0  0  0  0  0
    3.9955   -1.6402    0.0000 O   0  0  0  0  0  0  0  0  0  0  0  0
    3.3037   -4.2221    0.0000 C   0  0  0  0  0  0  0  0  0  0  0  0
    2.0046   -4.9721    0.0000 C   0  0  0  0  0  0  0  0  0  0  0  0
    1.8478   -6.4639    0.0000 O   0  0  0  0  0  0  0  0  0  0  0  0
    0.8899   -3.9684    0.0000 C   0  0  0  0  0  0  0  0  0  0  0  0
   -0.5773   -4.2803    0.0000 C   0  0  0  0  0  0  0  0  0  0  0  0
   -0.7500   -1.2990    0.0000 C   0  0  0  0  0  0  0  0  0  0  0  0
   -1.5000    0.0000    0.0000 C   0  0  0  0  0  0  0  0  0  0  0  0
   -0.7500    1.2990    0.0000 C   0  0  0  0  0  0  0  0  0  0  0  0
   -1.5000    2.5981    0.0000 C   0  0  0  0  0  0  0  0  0  0  0  0
   -2.2500    3.8971    0.0000 N   0  0  0  0  0  0  0  0  0  0  0  0
    0.7500    1.2990    0.0000 C   0  0  0  0  0  0  0  0  0  0  0  0
    1.5000    2.5981    0.0000 Cl  0  0  0  0  0  0  0  0  0  0  0  0
  1  2  1  0
  2  3  2  0
  3  4  1  0
  4  5  1  0
  5  6  2  0
  5  7  1  0
  7  8  1  0
  8  9  1  6
  8 10  1  0
 10 11  1  6
  3 12  1  0
 12 13  2  0
 13 14  1  0
 14 15  1  0
 15 16  3  0
 14 17  2  0
 17 18  1  0
 17  2  1  0
 10  4  1  0
M  END
>  <assay_chembl_id>  (622) 
CHEMBL4021499

>  <assay_description>  (622) 
Displacement of [3H]mibolerone from human AR after 3 hrs

>  <parent_molecule_chembl_id>  (622) 
CHEMBL4100278

>  <canonical_smiles>  (622) 
Cc1c(N2C(=O)C[C@H](O)[C@@H]2C)ccc(C#N)c1Cl

>  <standard_type>  (622) 
IC50

>  <standard_relation>  (622) 
=

>  <standard_value>  (622) 
11.0

>  <standard_units>  (622) 
nM

>  <target_pref_name>  (622) 
Androgen Receptor

>  <target_chembl_id>  (622) 
CHEMBL1871

>  <target_organism>  (622) 
Homo sapiens

>  <pchembl_median>  (622) 
6.51

$$$$
CHEMBL4085514
     RDKit          2D

 18 19  0  0  0  0  0  0  0  0999 V2000
    3.9955   -1.6402    0.0000 C   0  0  0  0  0  0  0  0  0  0  0  0
    2.9918   -2.7549    0.0000 C   0  0  0  0  0  0  0  0  0  0  0  0
    1.5000   -2.5981    0.0000 N   0  0  0  0  0  0  0  0  0  0  0  0
    0.7500   -1.2990    0.0000 C   0  0  0  0  0  0  0  0  0  0  0  0
    1.5000    0.0000    0.0000 C   0  0  0  0  0  0  0  0  0  0  0  0
    0.7500    1.2990    0.0000 C   0  0  0  0  0  0  0  0  0  0  0  0
   -0.7500    1.2990    0.0000 C   0  0  0  0  0  0  0  0  0  0  0  0
   -1.5000    2.5981    0.0000 C   0  0  0  0  0  0  0  0  0  0  0  0
   -2.2500    3.8971    0.0000 N   0  0  0  0  0  0  0  0  0  0  0  0
   -1.5000    0.0000    0.0000 C   0  0  0  0  0  0  0  0  0  0  0  0
   -3.0000    0.0000    0.0000 Cl  0  0  0  0  0  0  0  0  0  0  0  0
   -0.7500   -1.2990    0.0000 C   0  0  0  0  0  0  0  0  0  0  0  0
    0.8899   -3.9684    0.0000 C   0  0  0  0  0  0  0  0  0  0  0  0
   -0.5773   -4.2803    0.0000 O   0  0  0  0  0  0  0  0  0  0  0  0
    2.0046   -4.9721    0.0000 C   0  0  0  0  0  0  0  0  0  0  0  0
    3.3037   -4.2221    0.0000 C   0  0  0  0  0  0  0  0  0  0  0  0
    4.7302   -3.7586    0.0000 C   0  0  0  0  0  0  0  0  0  0  0  0
    3.9138   -5.5924    0.0000 O   0  0  0  0  0  0  0  0  0  0  0  0
  2  1  1  1
  2  3  1  0
  3  4  1  0
  4  5  2  0
  5  6  1  0
  6  7  2  0
  7  8  1  0
  8  9  3  0
  7 10  1  0
 10 11  1  0
 10 12  2  0
  3 13  1  0
 13 14  2  0
 13 15  1  0
 15 16  1  0
 16 17  1  6
 16 18  1  0
 16  2  1  0
 12  4  1  0
M  END
>  <assay_chembl_id>  (623) 
CHEMBL4021499

>  <assay_description>  (623) 
Displacement of [3H]mibolerone from human AR after 3 hrs

>  <parent_molecule_chembl_id>  (623) 
CHEMBL4085514

>  <canonical_smiles>  (623) 
C[C@@H]1N(c2ccc(C#N)c(Cl)c2)C(=O)C[C@]1(C)O

>  <standard_type>  (623) 
IC50

>  <standard_relation>  (623) 
=

>  <standard_value>  (623) 
15.0

>  <standard_units>  (623) 
nM

>  <target_pref_name>  (623) 
Androgen Receptor

>  <target_chembl_id>  (623) 
CHEMBL1871

>  <target_organism>  (623) 
Homo sapiens

>  <pchembl_median>  (623) 
6.36

$$$$
CHEMBL4072533
     RDKit          2D

 18 19  0  0  0  0  0  0  0  0999 V2000
   -1.0409   -5.7068    0.0000 C   0  0  0  0  0  0  0  0  0  0  0  0
   -0.5773   -4.2803    0.0000 C   0  0  0  0  0  0  0  0  0  0  0  0
    0.8899   -3.9684    0.0000 C   0  0  0  0  0  0  0  0  0  0  0  0
    2.0046   -4.9721    0.0000 C   0  0  0  0  0  0  0  0  0  0  0  0
    1.8478   -6.4639    0.0000 O   0  0  0  0  0  0  0  0  0  0  0  0
    3.3037   -4.2221    0.0000 C   0  0  0  0  0  0  0  0  0  0  0  0
    2.9918   -2.7549    0.0000 C   0  0  0  0  0  0  0  0  0  0  0  0
    3.9955   -1.6402    0.0000 O   0  0  0  0  0  0  0  0  0  0  0  0
    1.5000   -2.5981    0.0000 N   0  0  0  0  0  0  0  0  0  0  0  0
    0.7500   -1.2990    0.0000 C   0  0  0  0  0  0  0  0  0  0  0  0
    1.5000    0.0000    0.0000 C   0  0  0  0  0  0  0  0  0  0  0  0
    0.7500    1.2990    0.0000 C   0  0  0  0  0  0  0  0  0  0  0  0
   -0.7500    1.2990    0.0000 C   0  0  0  0  0  0  0  0  0  0  0  0
   -1.5000    2.5981    0.0000 C   0  0  0  0  0  0  0  0  0  0  0  0
   -2.2500    3.8971    0.0000 N   0  0  0  0  0  0  0  0  0  0  0  0
   -1.5000    0.0000    0.0000 C   0  0  0  0  0  0  0  0  0  0  0  0
   -3.0000    0.0000    0.0000 Cl  0  0  0  0  0  0  0  0  0  0  0  0
   -0.7500   -1.2990    0.0000 C   0  0  0  0  0  0  0  0  0  0  0  0
  1  2  1  0
  3  2  1  6
  3  4  1  0
  4  5  1  6
  4  6  1  0
  6  7  1  0
  7  8  2  0
  7  9  1  0
  9 10  1  0
 10 11  2  0
 11 12  1  0
 12 13  2  0
 13 14  1  0
 14 15  3  0
 13 16  1  0
 16 17  1  0
 16 18  2  0
  9  3  1  0
 18 10  1  0
M  END
>  <assay_chembl_id>  (624) 
CHEMBL4021499

>  <assay_description>  (624) 
Displacement of [3H]mibolerone from human AR after 3 hrs

>  <parent_molecule_chembl_id>  (624) 
CHEMBL4072533

>  <canonical_smiles>  (624) 
CC[C@H]1[C@@H](O)CC(=O)N1c1ccc(C#N)c(Cl)c1

>  <standard_type>  (624) 
IC50

>  <standard_relation>  (624) 
=

>  <standard_value>  (624) 
3.9

>  <standard_units>  (624) 
nM

>  <target_pref_name>  (624) 
Androgen Receptor

>  <target_chembl_id>  (624) 
CHEMBL1871

>  <target_organism>  (624) 
Homo sapiens

>  <pchembl_median>  (624) 
7.07

$$$$
CHEMBL4067691
     RDKit          2D

 18 19  0  0  0  0  0  0  0  0999 V2000
   -1.0409   -5.7068    0.0000 C   0  0  0  0  0  0  0  0  0  0  0  0
   -0.5773   -4.2803    0.0000 C   0  0  0  0  0  0  0  0  0  0  0  0
    0.8899   -3.9684    0.0000 C   0  0  0  0  0  0  0  0  0  0  0  0
    2.0046   -4.9721    0.0000 C   0  0  0  0  0  0  0  0  0  0  0  0
    1.8478   -6.4639    0.0000 O   0  0  0  0  0  0  0  0  0  0  0  0
    3.3037   -4.2221    0.0000 C   0  0  0  0  0  0  0  0  0  0  0  0
    2.9918   -2.7549    0.0000 C   0  0  0  0  0  0  0  0  0  0  0  0
    3.9955   -1.6402    0.0000 O   0  0  0  0  0  0  0  0  0  0  0  0
    1.5000   -2.5981    0.0000 N   0  0  0  0  0  0  0  0  0  0  0  0
    0.7500   -1.2990    0.0000 C   0  0  0  0  0  0  0  0  0  0  0  0
    1.5000    0.0000    0.0000 C   0  0  0  0  0  0  0  0  0  0  0  0
    0.7500    1.2990    0.0000 C   0  0  0  0  0  0  0  0  0  0  0  0
   -0.7500    1.2990    0.0000 C   0  0  0  0  0  0  0  0  0  0  0  0
   -1.5000    2.5981    0.0000 C   0  0  0  0  0  0  0  0  0  0  0  0
   -2.2500    3.8971    0.0000 N   0  0  0  0  0  0  0  0  0  0  0  0
   -1.5000    0.0000    0.0000 C   0  0  0  0  0  0  0  0  0  0  0  0
   -3.0000    0.0000    0.0000 Cl  0  0  0  0  0  0  0  0  0  0  0  0
   -0.7500   -1.2990    0.0000 C   0  0  0  0  0  0  0  0  0  0  0  0
  1  2  1  0
  3  2  1  6
  3  4  1  0
  4  5  1  1
  4  6  1  0
  6  7  1  0
  7  8  2  0
  7  9  1  0
  9 10  1  0
 10 11  2  0
 11 12  1  0
 12 13  2  0
 13 14  1  0
 14 15  3  0
 13 16  1  0
 16 17  1  0
 16 18  2  0
  9  3  1  0
 18 10  1  0
M  END
>  <assay_chembl_id>  (625) 
CHEMBL4021499

>  <assay_description>  (625) 
Displacement of [3H]mibolerone from human AR after 3 hrs

>  <parent_molecule_chembl_id>  (625) 
CHEMBL4067691

>  <canonical_smiles>  (625) 
CC[C@H]1[C@H](O)CC(=O)N1c1ccc(C#N)c(Cl)c1

>  <standard_type>  (625) 
IC50

>  <standard_relation>  (625) 
=

>  <standard_value>  (625) 
3.4

>  <standard_units>  (625) 
nM

>  <target_pref_name>  (625) 
Androgen Receptor

>  <target_chembl_id>  (625) 
CHEMBL1871

>  <target_organism>  (625) 
Homo sapiens

>  <pchembl_median>  (625) 
7.17

$$$$
CHEMBL4088914
     RDKit          2D

 21 22  0  0  0  0  0  0  0  0999 V2000
   -1.0409   -5.7068    0.0000 C   0  0  0  0  0  0  0  0  0  0  0  0
   -0.5773   -4.2803    0.0000 C   0  0  0  0  0  0  0  0  0  0  0  0
    0.8899   -3.9684    0.0000 C   0  0  0  0  0  0  0  0  0  0  0  0
    2.0046   -4.9721    0.0000 C   0  0  0  0  0  0  0  0  0  0  0  0
    1.8478   -6.4639    0.0000 O   0  0  0  0  0  0  0  0  0  0  0  0
    3.3037   -4.2221    0.0000 C   0  0  0  0  0  0  0  0  0  0  0  0
    2.9918   -2.7549    0.0000 C   0  0  0  0  0  0  0  0  0  0  0  0
    3.9955   -1.6402    0.0000 O   0  0  0  0  0  0  0  0  0  0  0  0
    1.5000   -2.5981    0.0000 N   0  0  0  0  0  0  0  0  0  0  0  0
    0.7500   -1.2990    0.0000 C   0  0  0  0  0  0  0  0  0  0  0  0
    1.5000    0.0000    0.0000 C   0  0  0  0  0  0  0  0  0  0  0  0
    0.7500    1.2990    0.0000 C   0  0  0  0  0  0  0  0  0  0  0  0
   -0.7500    1.2990    0.0000 C   0  0  0  0  0  0  0  0  0  0  0  0
   -1.5000    2.5981    0.0000 C   0  0  0  0  0  0  0  0  0  0  0  0
   -2.2500    3.8971    0.0000 N   0  0  0  0  0  0  0  0  0  0  0  0
   -1.5000    0.0000    0.0000 C   0  0  0  0  0  0  0  0  0  0  0  0
   -3.0000    0.0000    0.0000 C   0  0  0  0  0  0  0  0  0  0  0  0
   -4.5000    0.0000    0.0000 F   0  0  0  0  0  0  0  0  0  0  0  0
   -3.0000   -1.5000    0.0000 F   0  0  0  0  0  0  0  0  0  0  0  0
   -3.0000    1.5000    0.0000 F   0  0  0  0  0  0  0  0  0  0  0  0
   -0.7500   -1.2990    0.0000 C   0  0  0  0  0  0  0  0  0  0  0  0
  1  2  1  0
  3  2  1  6
  3  4  1  0
  4  5  1  6
  4  6  1  0
  6  7  1  0
  7  8  2  0
  7  9  1  0
  9 10  1  0
 10 11  2  0
 11 12  1  0
 12 13  2  0
 13 14  1  0
 14 15  3  0
 13 16  1  0
 16 17  1  0
 17 18  1  0
 17 19  1  0
 17 20  1  0
 16 21  2  0
  9  3  1  0
 21 10  1  0
M  END
>  <assay_chembl_id>  (626) 
CHEMBL4021499

>  <assay_description>  (626) 
Displacement of [3H]mibolerone from human AR after 3 hrs

>  <parent_molecule_chembl_id>  (626) 
CHEMBL4088914

>  <canonical_smiles>  (626) 
CC[C@H]1[C@@H](O)CC(=O)N1c1ccc(C#N)c(C(F)(F)F)c1

>  <standard_type>  (626) 
IC50

>  <standard_relation>  (626) 
=

>  <standard_value>  (626) 
3.6

>  <standard_units>  (626) 
nM

>  <target_pref_name>  (626) 
Androgen Receptor

>  <target_chembl_id>  (626) 
CHEMBL1871

>  <target_organism>  (626) 
Homo sapiens

>  <pchembl_median>  (626) 
6.675

$$$$
CHEMBL4059588
     RDKit          2D

 19 20  0  0  0  0  0  0  0  0999 V2000
   -1.0409   -5.7068    0.0000 C   0  0  0  0  0  0  0  0  0  0  0  0
   -0.5773   -4.2803    0.0000 C   0  0  0  0  0  0  0  0  0  0  0  0
    0.8899   -3.9684    0.0000 C   0  0  0  0  0  0  0  0  0  0  0  0
    2.0046   -4.9721    0.0000 C   0  0  0  0  0  0  0  0  0  0  0  0
    1.8478   -6.4639    0.0000 O   0  0  0  0  0  0  0  0  0  0  0  0
    3.3037   -4.2221    0.0000 C   0  0  0  0  0  0  0  0  0  0  0  0
    2.9918   -2.7549    0.0000 C   0  0  0  0  0  0  0  0  0  0  0  0
    3.9955   -1.6402    0.0000 O   0  0  0  0  0  0  0  0  0  0  0  0
    1.5000   -2.5981    0.0000 N   0  0  0  0  0  0  0  0  0  0  0  0
    0.7500   -1.2990    0.0000 C   0  0  0  0  0  0  0  0  0  0  0  0
    1.5000    0.0000    0.0000 C   0  0  0  0  0  0  0  0  0  0  0  0
    0.7500    1.2990    0.0000 C   0  0  0  0  0  0  0  0  0  0  0  0
   -0.7500    1.2990    0.0000 C   0  0  0  0  0  0  0  0  0  0  0  0
   -1.5000    2.5981    0.0000 C   0  0  0  0  0  0  0  0  0  0  0  0
   -2.2500    3.8971    0.0000 N   0  0  0  0  0  0  0  0  0  0  0  0
   -1.5000    0.0000    0.0000 C   0  0  0  0  0  0  0  0  0  0  0  0
   -3.0000    0.0000    0.0000 O   0  0  0  0  0  0  0  0  0  0  0  0
   -3.7500   -1.2990    0.0000 C   0  0  0  0  0  0  0  0  0  0  0  0
   -0.7500   -1.2990    0.0000 C   0  0  0  0  0  0  0  0  0  0  0  0
  1  2  1  0
  3  2  1  6
  3  4  1  0
  4  5  1  6
  4  6  1  0
  6  7  1  0
  7  8  2  0
  7  9  1  0
  9 10  1  0
 10 11  2  0
 11 12  1  0
 12 13  2  0
 13 14  1  0
 14 15  3  0
 13 16  1  0
 16 17  1  0
 17 18  1  0
 16 19  2  0
  9  3  1  0
 19 10  1  0
M  END
>  <assay_chembl_id>  (627) 
CHEMBL4021499

>  <assay_description>  (627) 
Displacement of [3H]mibolerone from human AR after 3 hrs

>  <parent_molecule_chembl_id>  (627) 
CHEMBL4059588

>  <canonical_smiles>  (627) 
CC[C@H]1[C@@H](O)CC(=O)N1c1ccc(C#N)c(OC)c1

>  <standard_type>  (627) 
IC50

>  <standard_relation>  (627) 
=

>  <standard_value>  (627) 
9.2

>  <standard_units>  (627) 
nM

>  <target_pref_name>  (627) 
Androgen Receptor

>  <target_chembl_id>  (627) 
CHEMBL1871

>  <target_organism>  (627) 
Homo sapiens

>  <pchembl_median>  (627) 
7.375

$$$$
CHEMBL4087902
     RDKit          2D

 19 20  0  0  0  0  0  0  0  0999 V2000
   -1.0409   -5.7068    0.0000 C   0  0  0  0  0  0  0  0  0  0  0  0
   -0.5773   -4.2803    0.0000 C   0  0  0  0  0  0  0  0  0  0  0  0
    0.8899   -3.9684    0.0000 C   0  0  0  0  0  0  0  0  0  0  0  0
    2.0046   -4.9721    0.0000 C   0  0  0  0  0  0  0  0  0  0  0  0
    1.8478   -6.4639    0.0000 O   0  0  0  0  0  0  0  0  0  0  0  0
    3.3037   -4.2221    0.0000 C   0  0  0  0  0  0  0  0  0  0  0  0
    2.9918   -2.7549    0.0000 C   0  0  0  0  0  0  0  0  0  0  0  0
    3.9955   -1.6402    0.0000 O   0  0  0  0  0  0  0  0  0  0  0  0
    1.5000   -2.5981    0.0000 N   0  0  0  0  0  0  0  0  0  0  0  0
    0.7500   -1.2990    0.0000 C   0  0  0  0  0  0  0  0  0  0  0  0
    1.5000    0.0000    0.0000 C   0  0  0  0  0  0  0  0  0  0  0  0
    0.7500    1.2990    0.0000 C   0  0  0  0  0  0  0  0  0  0  0  0
   -0.7500    1.2990    0.0000 C   0  0  0  0  0  0  0  0  0  0  0  0
   -1.5000    2.5981    0.0000 C   0  0  0  0  0  0  0  0  0  0  0  0
   -2.2500    3.8971    0.0000 N   0  0  0  0  0  0  0  0  0  0  0  0
   -1.5000    0.0000    0.0000 C   0  0  0  0  0  0  0  0  0  0  0  0
   -3.0000    0.0000    0.0000 Cl  0  0  0  0  0  0  0  0  0  0  0  0
   -0.7500   -1.2990    0.0000 C   0  0  0  0  0  0  0  0  0  0  0  0
   -1.5000   -2.5981    0.0000 C   0  0  0  0  0  0  0  0  0  0  0  0
  1  2  1  0
  3  2  1  6
  3  4  1  0
  4  5  1  6
  4  6  1  0
  6  7  1  0
  7  8  2  0
  7  9  1  0
  9 10  1  0
 10 11  2  0
 11 12  1  0
 12 13  2  0
 13 14  1  0
 14 15  3  0
 13 16  1  0
 16 17  1  0
 16 18  2  0
 18 19  1  0
  9  3  1  0
 18 10  1  0
M  END
>  <assay_chembl_id>  (628) 
CHEMBL4021499

>  <assay_description>  (628) 
Displacement of [3H]mibolerone from human AR after 3 hrs

>  <parent_molecule_chembl_id>  (628) 
CHEMBL4087902

>  <canonical_smiles>  (628) 
CC[C@H]1[C@@H](O)CC(=O)N1c1ccc(C#N)c(Cl)c1C

>  <standard_type>  (628) 
IC50

>  <standard_relation>  (628) 
=

>  <standard_value>  (628) 
9.0

>  <standard_units>  (628) 
nM

>  <target_pref_name>  (628) 
Androgen Receptor

>  <target_chembl_id>  (628) 
CHEMBL1871

>  <target_organism>  (628) 
Homo sapiens

>  <pchembl_median>  (628) 
6.61

$$$$
CHEMBL4074501
     RDKit          2D

 18 19  0  0  0  0  0  0  0  0999 V2000
    4.6740   -4.8322    0.0000 C   0  0  0  0  0  0  0  0  0  0  0  0
    3.3037   -4.2221    0.0000 C   0  0  0  0  0  0  0  0  0  0  0  0
    2.9918   -2.7549    0.0000 C   0  0  0  0  0  0  0  0  0  0  0  0
    3.9955   -1.6402    0.0000 O   0  0  0  0  0  0  0  0  0  0  0  0
    1.5000   -2.5981    0.0000 N   0  0  0  0  0  0  0  0  0  0  0  0
    0.7500   -1.2990    0.0000 C   0  0  0  0  0  0  0  0  0  0  0  0
    1.5000    0.0000    0.0000 C   0  0  0  0  0  0  0  0  0  0  0  0
    0.7500    1.2990    0.0000 C   0  0  0  0  0  0  0  0  0  0  0  0
   -0.7500    1.2990    0.0000 C   0  0  0  0  0  0  0  0  0  0  0  0
   -1.5000    2.5981    0.0000 C   0  0  0  0  0  0  0  0  0  0  0  0
   -2.2500    3.8971    0.0000 N   0  0  0  0  0  0  0  0  0  0  0  0
   -1.5000    0.0000    0.0000 C   0  0  0  0  0  0  0  0  0  0  0  0
   -3.0000    0.0000    0.0000 Cl  0  0  0  0  0  0  0  0  0  0  0  0
   -0.7500   -1.2990    0.0000 C   0  0  0  0  0  0  0  0  0  0  0  0
    0.8899   -3.9684    0.0000 C   0  0  0  0  0  0  0  0  0  0  0  0
   -0.5773   -4.2803    0.0000 C   0  0  0  0  0  0  0  0  0  0  0  0
    2.0046   -4.9721    0.0000 C   0  0  0  0  0  0  0  0  0  0  0  0
    1.8478   -6.4639    0.0000 O   0  0  0  0  0  0  0  0  0  0  0  0
  2  1  1  1
  2  3  1  0
  3  4  2  0
  3  5  1  0
  5  6  1  0
  6  7  2  0
  7  8  1  0
  8  9  2  0
  9 10  1  0
 10 11  3  0
  9 12  1  0
 12 13  1  0
 12 14  2  0
  5 15  1  0
 15 16  1  6
 15 17  1  0
 17 18  1  6
 17  2  1  0
 14  6  1  0
M  END
>  <assay_chembl_id>  (629) 
CHEMBL4021499

>  <assay_description>  (629) 
Displacement of [3H]mibolerone from human AR after 3 hrs

>  <parent_molecule_chembl_id>  (629) 
CHEMBL4074501

>  <canonical_smiles>  (629) 
C[C@@H]1C(=O)N(c2ccc(C#N)c(Cl)c2)[C@@H](C)[C@H]1O

>  <standard_type>  (629) 
IC50

>  <standard_relation>  (629) 
=

>  <standard_value>  (629) 
1.3

>  <standard_units>  (629) 
nM

>  <target_pref_name>  (629) 
Androgen Receptor

>  <target_chembl_id>  (629) 
CHEMBL1871

>  <target_organism>  (629) 
Homo sapiens

>  <pchembl_median>  (629) 
6.89

$$$$
CHEMBL4101232
     RDKit          2D

 19 20  0  0  0  0  0  0  0  0999 V2000
    4.8308   -6.3240    0.0000 C   0  0  0  0  0  0  0  0  0  0  0  0
    4.6740   -4.8322    0.0000 C   0  0  0  0  0  0  0  0  0  0  0  0
    3.3037   -4.2221    0.0000 C   0  0  0  0  0  0  0  0  0  0  0  0
    2.9918   -2.7549    0.0000 C   0  0  0  0  0  0  0  0  0  0  0  0
    3.9955   -1.6402    0.0000 O   0  0  0  0  0  0  0  0  0  0  0  0
    1.5000   -2.5981    0.0000 N   0  0  0  0  0  0  0  0  0  0  0  0
    0.7500   -1.2990    0.0000 C   0  0  0  0  0  0  0  0  0  0  0  0
    1.5000    0.0000    0.0000 C   0  0  0  0  0  0  0  0  0  0  0  0
    0.7500    1.2990    0.0000 C   0  0  0  0  0  0  0  0  0  0  0  0
   -0.7500    1.2990    0.0000 C   0  0  0  0  0  0  0  0  0  0  0  0
   -1.5000    2.5981    0.0000 C   0  0  0  0  0  0  0  0  0  0  0  0
   -2.2500    3.8971    0.0000 N   0  0  0  0  0  0  0  0  0  0  0  0
   -1.5000    0.0000    0.0000 C   0  0  0  0  0  0  0  0  0  0  0  0
   -3.0000    0.0000    0.0000 Cl  0  0  0  0  0  0  0  0  0  0  0  0
   -0.7500   -1.2990    0.0000 C   0  0  0  0  0  0  0  0  0  0  0  0
    0.8899   -3.9684    0.0000 C   0  0  0  0  0  0  0  0  0  0  0  0
   -0.5773   -4.2803    0.0000 C   0  0  0  0  0  0  0  0  0  0  0  0
    2.0046   -4.9721    0.0000 C   0  0  0  0  0  0  0  0  0  0  0  0
    1.8478   -6.4639    0.0000 O   0  0  0  0  0  0  0  0  0  0  0  0
  1  2  1  0
  3  2  1  1
  3  4  1  0
  4  5  2  0
  4  6  1  0
  6  7  1  0
  7  8  2  0
  8  9  1  0
  9 10  2  0
 10 11  1  0
 11 12  3  0
 10 13  1  0
 13 14  1  0
 13 15  2  0
  6 16  1  0
 16 17  1  6
 16 18  1  0
 18 19  1  6
 18  3  1  0
 15  7  1  0
M  END
>  <assay_chembl_id>  (630) 
CHEMBL4021499

>  <assay_description>  (630) 
Displacement of [3H]mibolerone from human AR after 3 hrs

>  <parent_molecule_chembl_id>  (630) 
CHEMBL4101232

>  <canonical_smiles>  (630) 
CC[C@@H]1C(=O)N(c2ccc(C#N)c(Cl)c2)[C@@H](C)[C@H]1O

>  <standard_type>  (630) 
IC50

>  <standard_relation>  (630) 
=

>  <standard_value>  (630) 
3.2

>  <standard_units>  (630) 
nM

>  <target_pref_name>  (630) 
Androgen Receptor

>  <target_chembl_id>  (630) 
CHEMBL1871

>  <target_organism>  (630) 
Homo sapiens

>  <pchembl_median>  (630) 
6.01

$$$$
CHEMBL4101935
     RDKit          2D

 24 26  0  0  0  0  0  0  0  0999 V2000
    0.4022   -7.7629    0.0000 C   0  0  0  0  0  0  0  0  0  0  0  0
    0.2454   -6.2711    0.0000 C   0  0  0  0  0  0  0  0  0  0  0  0
    1.3601   -5.2674    0.0000 C   0  0  0  0  0  0  0  0  0  0  0  0
    2.8273   -5.5793    0.0000 O   0  0  0  0  0  0  0  0  0  0  0  0
    0.7500   -3.8971    0.0000 C   0  0  0  0  0  0  0  0  0  0  0  0
    1.5000   -2.5981    0.0000 C   0  0  0  0  0  0  0  0  0  0  0  0
    0.7500   -1.2990    0.0000 C   0  0  0  0  0  0  0  0  0  0  0  0
    1.5000    0.0000    0.0000 C   0  0  0  0  0  0  0  0  0  0  0  0
    0.7500    1.2990    0.0000 C   0  0  0  0  0  0  0  0  0  0  0  0
   -0.7500    1.2990    0.0000 C   0  0  0  0  0  0  0  0  0  0  0  0
   -1.5000    0.0000    0.0000 C   0  0  0  0  0  0  0  0  0  0  0  0
   -0.7500   -1.2990    0.0000 C   0  0  0  0  0  0  0  0  0  0  0  0
   -0.7418   -4.0539    0.0000 C   0  0  0  0  0  0  0  0  0  0  0  0
   -1.7455   -2.9392    0.0000 O   0  0  0  0  0  0  0  0  0  0  0  0
   -1.0537   -5.5211    0.0000 N   0  0  0  0  0  0  0  0  0  0  0  0
   -2.4240   -6.1312    0.0000 C   0  0  0  0  0  0  0  0  0  0  0  0
   -3.6375   -5.2496    0.0000 C   0  0  0  0  0  0  0  0  0  0  0  0
   -5.0078   -5.8597    0.0000 C   0  0  0  0  0  0  0  0  0  0  0  0
   -5.1646   -7.3514    0.0000 C   0  0  0  0  0  0  0  0  0  0  0  0
   -6.5349   -7.9615    0.0000 C   0  0  0  0  0  0  0  0  0  0  0  0
   -7.9052   -8.5717    0.0000 N   0  0  0  0  0  0  0  0  0  0  0  0
   -3.9511   -8.2331    0.0000 C   0  0  0  0  0  0  0  0  0  0  0  0
   -4.1079   -9.7249    0.0000 Cl  0  0  0  0  0  0  0  0  0  0  0  0
   -2.5808   -7.6230    0.0000 C   0  0  0  0  0  0  0  0  0  0  0  0
  2  1  1  6
  2  3  1  0
  3  4  1  6
  3  5  1  0
  5  6  1  1
  6  7  1  0
  7  8  2  0
  8  9  1  0
  9 10  2  0
 10 11  1  0
 11 12  2  0
  5 13  1  0
 13 14  2  0
 13 15  1  0
 15 16  1  0
 16 17  2  0
 17 18  1  0
 18 19  2  0
 19 20  1  0
 20 21  3  0
 19 22  1  0
 22 23  1  0
 22 24  2  0
 15  2  1  0
 24 16  1  0
 12  7  1  0
M  END
>  <assay_chembl_id>  (631) 
CHEMBL4021499

>  <assay_description>  (631) 
Displacement of [3H]mibolerone from human AR after 3 hrs

>  <parent_molecule_chembl_id>  (631) 
CHEMBL4101935

>  <canonical_smiles>  (631) 
C[C@H]1[C@@H](O)[C@H](Cc2ccccc2)C(=O)N1c1ccc(C#N)c(Cl)c1

>  <standard_type>  (631) 
IC50

>  <standard_relation>  (631) 
=

>  <standard_value>  (631) 
6.0

>  <standard_units>  (631) 
nM

>  <target_pref_name>  (631) 
Androgen Receptor

>  <target_chembl_id>  (631) 
CHEMBL1871

>  <target_organism>  (631) 
Homo sapiens

>  <pchembl_median>  (631) 
6.68

$$$$
CHEMBL4100995
     RDKit          2D

 19 20  0  0  0  0  0  0  0  0999 V2000
   -1.0409   -5.7068    0.0000 C   0  0  0  0  0  0  0  0  0  0  0  0
   -0.5773   -4.2803    0.0000 C   0  0  0  0  0  0  0  0  0  0  0  0
    0.8899   -3.9684    0.0000 C   0  0  0  0  0  0  0  0  0  0  0  0
    2.0046   -4.9721    0.0000 C   0  0  0  0  0  0  0  0  0  0  0  0
    1.8478   -6.4639    0.0000 O   0  0  0  0  0  0  0  0  0  0  0  0
    3.3037   -4.2221    0.0000 C   0  0  0  0  0  0  0  0  0  0  0  0
    4.6740   -4.8322    0.0000 C   0  0  0  0  0  0  0  0  0  0  0  0
    2.9918   -2.7549    0.0000 C   0  0  0  0  0  0  0  0  0  0  0  0
    3.9955   -1.6402    0.0000 O   0  0  0  0  0  0  0  0  0  0  0  0
    1.5000   -2.5981    0.0000 N   0  0  0  0  0  0  0  0  0  0  0  0
    0.7500   -1.2990    0.0000 C   0  0  0  0  0  0  0  0  0  0  0  0
    1.5000    0.0000    0.0000 C   0  0  0  0  0  0  0  0  0  0  0  0
    0.7500    1.2990    0.0000 C   0  0  0  0  0  0  0  0  0  0  0  0
   -0.7500    1.2990    0.0000 C   0  0  0  0  0  0  0  0  0  0  0  0
   -1.5000    2.5981    0.0000 C   0  0  0  0  0  0  0  0  0  0  0  0
   -2.2500    3.8971    0.0000 N   0  0  0  0  0  0  0  0  0  0  0  0
   -1.5000    0.0000    0.0000 C   0  0  0  0  0  0  0  0  0  0  0  0
   -3.0000    0.0000    0.0000 Cl  0  0  0  0  0  0  0  0  0  0  0  0
   -0.7500   -1.2990    0.0000 C   0  0  0  0  0  0  0  0  0  0  0  0
  1  2  1  0
  3  2  1  6
  3  4  1  0
  4  5  1  6
  4  6  1  0
  6  7  1  1
  6  8  1  0
  8  9  2  0
  8 10  1  0
 10 11  1  0
 11 12  2  0
 12 13  1  0
 13 14  2  0
 14 15  1  0
 15 16  3  0
 14 17  1  0
 17 18  1  0
 17 19  2  0
 10  3  1  0
 19 11  1  0
M  END
>  <assay_chembl_id>  (632) 
CHEMBL4021499

>  <assay_description>  (632) 
Displacement of [3H]mibolerone from human AR after 3 hrs

>  <parent_molecule_chembl_id>  (632) 
CHEMBL4100995

>  <canonical_smiles>  (632) 
CC[C@H]1[C@@H](O)[C@H](C)C(=O)N1c1ccc(C#N)c(Cl)c1

>  <standard_type>  (632) 
IC50

>  <standard_relation>  (632) 
=

>  <standard_value>  (632) 
1.8

>  <standard_units>  (632) 
nM

>  <target_pref_name>  (632) 
Androgen Receptor

>  <target_chembl_id>  (632) 
CHEMBL1871

>  <target_organism>  (632) 
Homo sapiens

>  <pchembl_median>  (632) 
7.66

$$$$
CHEMBL4077666
     RDKit          2D

 19 20  0  0  0  0  0  0  0  0999 V2000
   -0.5773   -4.2803    0.0000 C   0  0  0  0  0  0  0  0  0  0  0  0
    0.8899   -3.9684    0.0000 C   0  0  0  0  0  0  0  0  0  0  0  0
    2.0046   -4.9721    0.0000 C   0  0  0  0  0  0  0  0  0  0  0  0
    1.8478   -6.4639    0.0000 O   0  0  0  0  0  0  0  0  0  0  0  0
    3.3037   -4.2221    0.0000 C   0  0  0  0  0  0  0  0  0  0  0  0
    4.7302   -3.7586    0.0000 C   0  0  0  0  0  0  0  0  0  0  0  0
    3.9138   -5.5924    0.0000 C   0  0  0  0  0  0  0  0  0  0  0  0
    2.9918   -2.7549    0.0000 C   0  0  0  0  0  0  0  0  0  0  0  0
    3.9955   -1.6402    0.0000 O   0  0  0  0  0  0  0  0  0  0  0  0
    1.5000   -2.5981    0.0000 N   0  0  0  0  0  0  0  0  0  0  0  0
    0.7500   -1.2990    0.0000 C   0  0  0  0  0  0  0  0  0  0  0  0
    1.5000    0.0000    0.0000 C   0  0  0  0  0  0  0  0  0  0  0  0
    0.7500    1.2990    0.0000 C   0  0  0  0  0  0  0  0  0  0  0  0
   -0.7500    1.2990    0.0000 C   0  0  0  0  0  0  0  0  0  0  0  0
   -1.5000    2.5981    0.0000 C   0  0  0  0  0  0  0  0  0  0  0  0
   -2.2500    3.8971    0.0000 N   0  0  0  0  0  0  0  0  0  0  0  0
   -1.5000    0.0000    0.0000 C   0  0  0  0  0  0  0  0  0  0  0  0
   -3.0000    0.0000    0.0000 Cl  0  0  0  0  0  0  0  0  0  0  0  0
   -0.7500   -1.2990    0.0000 C   0  0  0  0  0  0  0  0  0  0  0  0
  2  1  1  6
  2  3  1  0
  3  4  1  6
  3  5  1  0
  5  6  1  0
  5  7  1  0
  5  8  1  0
  8  9  2  0
  8 10  1  0
 10 11  1  0
 11 12  2  0
 12 13  1  0
 13 14  2  0
 14 15  1  0
 15 16  3  0
 14 17  1  0
 17 18  1  0
 17 19  2  0
 10  2  1  0
 19 11  1  0
M  END
>  <assay_chembl_id>  (633) 
CHEMBL4021499

>  <assay_description>  (633) 
Displacement of [3H]mibolerone from human AR after 3 hrs

>  <parent_molecule_chembl_id>  (633) 
CHEMBL4077666

>  <canonical_smiles>  (633) 
C[C@H]1[C@@H](O)C(C)(C)C(=O)N1c1ccc(C#N)c(Cl)c1

>  <standard_type>  (633) 
IC50

>  <standard_relation>  (633) 
=

>  <standard_value>  (633) 
14.0

>  <standard_units>  (633) 
nM

>  <target_pref_name>  (633) 
Androgen Receptor

>  <target_chembl_id>  (633) 
CHEMBL1871

>  <target_organism>  (633) 
Homo sapiens

>  <pchembl_median>  (633) 
7.24

$$$$
CHEMBL4082265
     RDKit          2D

 19 20  0  0  0  0  0  0  0  0999 V2000
   -0.5773   -4.2803    0.0000 C   0  0  0  0  0  0  0  0  0  0  0  0
    0.8899   -3.9684    0.0000 C   0  0  0  0  0  0  0  0  0  0  0  0
    2.0046   -4.9721    0.0000 C   0  0  0  0  0  0  0  0  0  0  0  0
    1.8478   -6.4639    0.0000 O   0  0  0  0  0  0  0  0  0  0  0  0
    3.3037   -4.2221    0.0000 C   0  0  0  0  0  0  0  0  0  0  0  0
    4.7302   -3.7586    0.0000 C   0  0  0  0  0  0  0  0  0  0  0  0
    3.9138   -5.5924    0.0000 C   0  0  0  0  0  0  0  0  0  0  0  0
    2.9918   -2.7549    0.0000 C   0  0  0  0  0  0  0  0  0  0  0  0
    3.9955   -1.6402    0.0000 O   0  0  0  0  0  0  0  0  0  0  0  0
    1.5000   -2.5981    0.0000 N   0  0  0  0  0  0  0  0  0  0  0  0
    0.7500   -1.2990    0.0000 C   0  0  0  0  0  0  0  0  0  0  0  0
    1.5000    0.0000    0.0000 C   0  0  0  0  0  0  0  0  0  0  0  0
    0.7500    1.2990    0.0000 C   0  0  0  0  0  0  0  0  0  0  0  0
   -0.7500    1.2990    0.0000 C   0  0  0  0  0  0  0  0  0  0  0  0
   -1.5000    2.5981    0.0000 C   0  0  0  0  0  0  0  0  0  0  0  0
   -2.2500    3.8971    0.0000 N   0  0  0  0  0  0  0  0  0  0  0  0
   -1.5000    0.0000    0.0000 C   0  0  0  0  0  0  0  0  0  0  0  0
   -3.0000    0.0000    0.0000 Cl  0  0  0  0  0  0  0  0  0  0  0  0
   -0.7500   -1.2990    0.0000 C   0  0  0  0  0  0  0  0  0  0  0  0
  2  1  1  1
  2  3  1  0
  3  4  1  1
  3  5  1  0
  5  6  1  0
  5  7  1  0
  5  8  1  0
  8  9  2  0
  8 10  1  0
 10 11  1  0
 11 12  2  0
 12 13  1  0
 13 14  2  0
 14 15  1  0
 15 16  3  0
 14 17  1  0
 17 18  1  0
 17 19  2  0
 10  2  1  0
 19 11  1  0
M  END
>  <assay_chembl_id>  (634) 
CHEMBL4021499

>  <assay_description>  (634) 
Displacement of [3H]mibolerone from human AR after 3 hrs

>  <parent_molecule_chembl_id>  (634) 
CHEMBL4082265

>  <canonical_smiles>  (634) 
C[C@@H]1[C@H](O)C(C)(C)C(=O)N1c1ccc(C#N)c(Cl)c1

>  <standard_type>  (634) 
IC50

>  <standard_relation>  (634) 
=

>  <standard_value>  (634) 
6600.0

>  <standard_units>  (634) 
nM

>  <target_pref_name>  (634) 
Androgen Receptor

>  <target_chembl_id>  (634) 
CHEMBL1871

>  <target_organism>  (634) 
Homo sapiens

>  <pchembl_median>  (634) 
7.13

$$$$
CHEMBL4063939
     RDKit          2D

 19 20  0  0  0  0  0  0  0  0999 V2000
   -0.5773   -4.2803    0.0000 C   0  0  0  0  0  0  0  0  0  0  0  0
    0.8899   -3.9684    0.0000 C   0  0  0  0  0  0  0  0  0  0  0  0
    2.0046   -4.9721    0.0000 C   0  0  0  0  0  0  0  0  0  0  0  0
    1.8478   -6.4639    0.0000 O   0  0  0  0  0  0  0  0  0  0  0  0
    3.3037   -4.2221    0.0000 C   0  0  0  0  0  0  0  0  0  0  0  0
    4.7302   -3.7586    0.0000 F   0  0  0  0  0  0  0  0  0  0  0  0
    3.9138   -5.5924    0.0000 F   0  0  0  0  0  0  0  0  0  0  0  0
    2.9918   -2.7549    0.0000 C   0  0  0  0  0  0  0  0  0  0  0  0
    3.9955   -1.6402    0.0000 O   0  0  0  0  0  0  0  0  0  0  0  0
    1.5000   -2.5981    0.0000 N   0  0  0  0  0  0  0  0  0  0  0  0
    0.7500   -1.2990    0.0000 C   0  0  0  0  0  0  0  0  0  0  0  0
    1.5000    0.0000    0.0000 C   0  0  0  0  0  0  0  0  0  0  0  0
    0.7500    1.2990    0.0000 C   0  0  0  0  0  0  0  0  0  0  0  0
   -0.7500    1.2990    0.0000 C   0  0  0  0  0  0  0  0  0  0  0  0
   -1.5000    2.5981    0.0000 C   0  0  0  0  0  0  0  0  0  0  0  0
   -2.2500    3.8971    0.0000 N   0  0  0  0  0  0  0  0  0  0  0  0
   -1.5000    0.0000    0.0000 C   0  0  0  0  0  0  0  0  0  0  0  0
   -3.0000    0.0000    0.0000 Cl  0  0  0  0  0  0  0  0  0  0  0  0
   -0.7500   -1.2990    0.0000 C   0  0  0  0  0  0  0  0  0  0  0  0
  2  1  1  6
  2  3  1  0
  3  4  1  6
  3  5  1  0
  5  6  1  0
  5  7  1  0
  5  8  1  0
  8  9  2  0
  8 10  1  0
 10 11  1  0
 11 12  2  0
 12 13  1  0
 13 14  2  0
 14 15  1  0
 15 16  3  0
 14 17  1  0
 17 18  1  0
 17 19  2  0
 10  2  1  0
 19 11  1  0
M  END
>  <assay_chembl_id>  (635) 
CHEMBL4021499

>  <assay_description>  (635) 
Displacement of [3H]mibolerone from human AR after 3 hrs

>  <parent_molecule_chembl_id>  (635) 
CHEMBL4063939

>  <canonical_smiles>  (635) 
C[C@H]1[C@@H](O)C(F)(F)C(=O)N1c1ccc(C#N)c(Cl)c1

>  <standard_type>  (635) 
IC50

>  <standard_relation>  (635) 
=

>  <standard_value>  (635) 
1.1

>  <standard_units>  (635) 
nM

>  <target_pref_name>  (635) 
Androgen Receptor

>  <target_chembl_id>  (635) 
CHEMBL1871

>  <target_organism>  (635) 
Homo sapiens

>  <pchembl_median>  (635) 
5.89

$$$$
CHEMBL4093265
     RDKit          2D

 20 21  0  0  0  0  0  0  0  0999 V2000
   -2.5081   -6.0187    0.0000 C   0  0  0  0  0  0  0  0  0  0  0  0
   -1.0409   -5.7068    0.0000 C   0  0  0  0  0  0  0  0  0  0  0  0
   -0.0372   -6.8216    0.0000 C   0  0  0  0  0  0  0  0  0  0  0  0
   -0.5773   -4.2803    0.0000 C   0  0  0  0  0  0  0  0  0  0  0  0
    0.8899   -3.9684    0.0000 C   0  0  0  0  0  0  0  0  0  0  0  0
    2.0046   -4.9721    0.0000 C   0  0  0  0  0  0  0  0  0  0  0  0
    1.8478   -6.4639    0.0000 O   0  0  0  0  0  0  0  0  0  0  0  0
    3.3037   -4.2221    0.0000 C   0  0  0  0  0  0  0  0  0  0  0  0
    2.9918   -2.7549    0.0000 C   0  0  0  0  0  0  0  0  0  0  0  0
    3.9955   -1.6402    0.0000 O   0  0  0  0  0  0  0  0  0  0  0  0
    1.5000   -2.5981    0.0000 N   0  0  0  0  0  0  0  0  0  0  0  0
    0.7500   -1.2990    0.0000 C   0  0  0  0  0  0  0  0  0  0  0  0
    1.5000    0.0000    0.0000 C   0  0  0  0  0  0  0  0  0  0  0  0
    0.7500    1.2990    0.0000 C   0  0  0  0  0  0  0  0  0  0  0  0
   -0.7500    1.2990    0.0000 C   0  0  0  0  0  0  0  0  0  0  0  0
   -1.5000    2.5981    0.0000 C   0  0  0  0  0  0  0  0  0  0  0  0
   -2.2500    3.8971    0.0000 N   0  0  0  0  0  0  0  0  0  0  0  0
   -1.5000    0.0000    0.0000 C   0  0  0  0  0  0  0  0  0  0  0  0
   -3.0000    0.0000    0.0000 Cl  0  0  0  0  0  0  0  0  0  0  0  0
   -0.7500   -1.2990    0.0000 C   0  0  0  0  0  0  0  0  0  0  0  0
  1  2  1  0
  2  3  1  0
  2  4  1  0
  5  4  1  6
  5  6  1  0
  6  7  1  6
  6  8  1  0
  8  9  1  0
  9 10  2  0
  9 11  1  0
 11 12  1  0
 12 13  2  0
 13 14  1  0
 14 15  2  0
 15 16  1  0
 16 17  3  0
 15 18  1  0
 18 19  1  0
 18 20  2  0
 11  5  1  0
 20 12  1  0
M  END
>  <assay_chembl_id>  (636) 
CHEMBL4021499

>  <assay_description>  (636) 
Displacement of [3H]mibolerone from human AR after 3 hrs

>  <parent_molecule_chembl_id>  (636) 
CHEMBL4093265

>  <canonical_smiles>  (636) 
CC(C)C[C@H]1[C@@H](O)CC(=O)N1c1ccc(C#N)c(Cl)c1

>  <standard_type>  (636) 
IC50

>  <standard_relation>  (636) 
=

>  <standard_value>  (636) 
5.5

>  <standard_units>  (636) 
nM

>  <target_pref_name>  (636) 
Androgen Receptor

>  <target_chembl_id>  (636) 
CHEMBL1871

>  <target_organism>  (636) 
Homo sapiens

>  <pchembl_median>  (636) 
5.64

$$$$
CHEMBL4083012
     RDKit          2D

 19 20  0  0  0  0  0  0  0  0999 V2000
   -1.5044   -7.1334    0.0000 N   0  0  0  0  0  0  0  0  0  0  0  0
   -1.0409   -5.7068    0.0000 C   0  0  0  0  0  0  0  0  0  0  0  0
   -0.5773   -4.2803    0.0000 C   0  0  0  0  0  0  0  0  0  0  0  0
    0.8899   -3.9684    0.0000 C   0  0  0  0  0  0  0  0  0  0  0  0
    2.0046   -4.9721    0.0000 C   0  0  0  0  0  0  0  0  0  0  0  0
    1.8478   -6.4639    0.0000 O   0  0  0  0  0  0  0  0  0  0  0  0
    3.3037   -4.2221    0.0000 C   0  0  0  0  0  0  0  0  0  0  0  0
    2.9918   -2.7549    0.0000 C   0  0  0  0  0  0  0  0  0  0  0  0
    3.9955   -1.6402    0.0000 O   0  0  0  0  0  0  0  0  0  0  0  0
    1.5000   -2.5981    0.0000 N   0  0  0  0  0  0  0  0  0  0  0  0
    0.7500   -1.2990    0.0000 C   0  0  0  0  0  0  0  0  0  0  0  0
    1.5000    0.0000    0.0000 C   0  0  0  0  0  0  0  0  0  0  0  0
    0.7500    1.2990    0.0000 C   0  0  0  0  0  0  0  0  0  0  0  0
   -0.7500    1.2990    0.0000 C   0  0  0  0  0  0  0  0  0  0  0  0
   -1.5000    2.5981    0.0000 C   0  0  0  0  0  0  0  0  0  0  0  0
   -2.2500    3.8971    0.0000 N   0  0  0  0  0  0  0  0  0  0  0  0
   -1.5000    0.0000    0.0000 C   0  0  0  0  0  0  0  0  0  0  0  0
   -3.0000    0.0000    0.0000 Cl  0  0  0  0  0  0  0  0  0  0  0  0
   -0.7500   -1.2990    0.0000 C   0  0  0  0  0  0  0  0  0  0  0  0
  1  2  3  0
  2  3  1  0
  4  3  1  6
  4  5  1  0
  5  6  1  6
  5  7  1  0
  7  8  1  0
  8  9  2  0
  8 10  1  0
 10 11  1  0
 11 12  2  0
 12 13  1  0
 13 14  2  0
 14 15  1  0
 15 16  3  0
 14 17  1  0
 17 18  1  0
 17 19  2  0
 10  4  1  0
 19 11  1  0
M  END
>  <assay_chembl_id>  (637) 
CHEMBL4021499

>  <assay_description>  (637) 
Displacement of [3H]mibolerone from human AR after 3 hrs

>  <parent_molecule_chembl_id>  (637) 
CHEMBL4083012

>  <canonical_smiles>  (637) 
N#CC[C@H]1[C@@H](O)CC(=O)N1c1ccc(C#N)c(Cl)c1

>  <standard_type>  (637) 
IC50

>  <standard_relation>  (637) 
=

>  <standard_value>  (637) 
14.0

>  <standard_units>  (637) 
nM

>  <target_pref_name>  (637) 
Androgen Receptor

>  <target_chembl_id>  (637) 
CHEMBL1871

>  <target_organism>  (637) 
Homo sapiens

>  <pchembl_median>  (637) 
7.35

$$$$
CHEMBL3183409
     RDKit          2D

 33 36  0  0  0  0  0  0  0  0999 V2000
    9.4612   -0.6284    0.0000 C   0  0  0  0  0  0  0  0  0  0  0  0
    8.0346   -1.0919    0.0000 N   0  0  0  0  0  0  0  0  0  0  0  0
    6.9199   -0.0882    0.0000 C   0  0  0  0  0  0  0  0  0  0  0  0
    7.2317    1.3790    0.0000 O   0  0  0  0  0  0  0  0  0  0  0  0
    5.4933   -0.5518    0.0000 C   0  0  0  0  0  0  0  0  0  0  0  0
    5.1814   -2.0190    0.0000 C   0  0  0  0  0  0  0  0  0  0  0  0
    3.7548   -2.4825    0.0000 C   0  0  0  0  0  0  0  0  0  0  0  0
    2.6401   -1.4788    0.0000 C   0  0  0  0  0  0  0  0  0  0  0  0
    1.2135   -1.9423    0.0000 N   0  0  0  0  0  0  0  0  0  0  0  0
    0.7500   -3.3689    0.0000 C   0  0  0  0  0  0  0  0  0  0  0  0
    1.6317   -4.5824    0.0000 S   0  0  0  0  0  0  0  0  0  0  0  0
   -0.7500   -3.3689    0.0000 N   0  0  0  0  0  0  0  0  0  0  0  0
   -1.6317   -4.5824    0.0000 C   0  0  0  0  0  0  0  0  0  0  0  0
   -3.1235   -4.4257    0.0000 C   0  0  0  0  0  0  0  0  0  0  0  0
   -4.0051   -5.6392    0.0000 N   0  0  0  0  0  0  0  0  0  0  0  0
   -3.3950   -7.0095    0.0000 C   0  0  0  0  0  0  0  0  0  0  0  0
   -4.2767   -8.2230    0.0000 C   0  0  0  0  0  0  0  0  0  0  0  0
   -5.1584   -9.4366    0.0000 N   0  0  0  0  0  0  0  0  0  0  0  0
   -1.9033   -7.1663    0.0000 C   0  0  0  0  0  0  0  0  0  0  0  0
   -1.2931   -8.5366    0.0000 C   0  0  0  0  0  0  0  0  0  0  0  0
   -0.6830   -9.9069    0.0000 F   0  0  0  0  0  0  0  0  0  0  0  0
    0.0772   -7.9265    0.0000 F   0  0  0  0  0  0  0  0  0  0  0  0
   -2.6635   -9.1467    0.0000 F   0  0  0  0  0  0  0  0  0  0  0  0
   -1.0216   -5.9528    0.0000 C   0  0  0  0  0  0  0  0  0  0  0  0
   -1.2135   -1.9423    0.0000 C   0  0  0  0  0  0  0  0  0  0  0  0
   -2.6401   -1.4788    0.0000 O   0  0  0  0  0  0  0  0  0  0  0  0
   -0.0000   -1.0607    0.0000 C   0  0  0  0  0  0  0  0  0  0  0  0
    1.0607    0.0000    0.0000 C   0  0  0  0  0  0  0  0  0  0  0  0
    0.0000    1.0607    0.0000 C   0  0  0  0  0  0  0  0  0  0  0  0
   -1.0607    0.0000    0.0000 C   0  0  0  0  0  0  0  0  0  0  0  0
    2.9520   -0.0116    0.0000 C   0  0  0  0  0  0  0  0  0  0  0  0
    4.3786    0.4519    0.0000 C   0  0  0  0  0  0  0  0  0  0  0  0
    4.6904    1.9192    0.0000 F   0  0  0  0  0  0  0  0  0  0  0  0
  1  2  1  0
  2  3  1  0
  3  4  2  0
  3  5  1  0
  5  6  2  0
  6  7  1  0
  7  8  2  0
  8  9  1  0
  9 10  1  0
 10 11  2  0
 10 12  1  0
 12 13  1  0
 13 14  2  0
 14 15  1  0
 15 16  2  0
 16 17  1  0
 17 18  3  0
 16 19  1  0
 19 20  1  0
 20 21  1  0
 20 22  1  0
 20 23  1  0
 19 24  2  0
 12 25  1  0
 25 26  2  0
 25 27  1  0
 27 28  1  0
 28 29  1  0
 29 30  1  0
  8 31  1  0
 31 32  2  0
 32 33  1  0
 32  5  1  0
 27  9  1  0
 24 13  1  0
 30 27  1  0
M  END
>  <assay_chembl_id>  (638) 
CHEMBL4021779

>  <assay_description>  (638) 
Displacement of [3H]-R1881 from AR in human LNCaP cells preincubated for 30 mins followed by [3H]-R1881 addition measured after 30 mins by microbeta scintillation counter method

>  <parent_molecule_chembl_id>  (638) 
CHEMBL3183409

>  <canonical_smiles>  (638) 
CNC(=O)c1ccc(N2C(=S)N(c3cnc(C#N)c(C(F)(F)F)c3)C(=O)C23CCC3)cc1F

>  <standard_type>  (638) 
IC50

>  <standard_relation>  (638) 
=

>  <standard_value>  (638) 
16.25

>  <standard_units>  (638) 
nM

>  <target_pref_name>  (638) 
Androgen Receptor

>  <target_chembl_id>  (638) 
CHEMBL1871

>  <target_organism>  (638) 
Homo sapiens

>  <pchembl_median>  (638) 
6.06

$$$$
CHEMBL4104046
     RDKit          2D

 18 19  0  0  0  0  0  0  0  0999 V2000
   -0.5773   -4.2803    0.0000 C   0  0  0  0  0  0  0  0  0  0  0  0
    0.8899   -3.9684    0.0000 N   0  0  0  0  0  0  0  0  0  0  0  0
    2.0046   -4.9721    0.0000 C   0  0  0  0  0  0  0  0  0  0  0  0
    1.8478   -6.4639    0.0000 C   0  0  0  0  0  0  0  0  0  0  0  0
    1.6910   -7.9557    0.0000 N   0  0  0  0  0  0  0  0  0  0  0  0
    3.3037   -4.2221    0.0000 C   0  0  0  0  0  0  0  0  0  0  0  0
    2.9918   -2.7549    0.0000 C   0  0  0  0  0  0  0  0  0  0  0  0
    1.5000   -2.5981    0.0000 C   0  0  0  0  0  0  0  0  0  0  0  0
    0.7500   -1.2990    0.0000 C   0  0  0  0  0  0  0  0  0  0  0  0
    1.5000    0.0000    0.0000 C   0  0  0  0  0  0  0  0  0  0  0  0
    3.0000    0.0000    0.0000 F   0  0  0  0  0  0  0  0  0  0  0  0
    0.7500    1.2990    0.0000 C   0  0  0  0  0  0  0  0  0  0  0  0
   -0.7500    1.2990    0.0000 C   0  0  0  0  0  0  0  0  0  0  0  0
   -1.5000    2.5981    0.0000 O   0  0  0  0  0  0  0  0  0  0  0  0
   -1.5000    0.0000    0.0000 C   0  0  0  0  0  0  0  0  0  0  0  0
   -0.7500   -1.2990    0.0000 C   0  0  0  0  0  0  0  0  0  0  0  0
   -1.5000   -2.5981    0.0000 C   0  0  0  0  0  0  0  0  0  0  0  0
   -2.2500   -3.8971    0.0000 N   0  0  0  0  0  0  0  0  0  0  0  0
  1  2  1  0
  2  3  1  0
  3  4  1  0
  4  5  3  0
  3  6  2  0
  6  7  1  0
  7  8  2  0
  8  9  1  0
  9 10  2  0
 10 11  1  0
 10 12  1  0
 12 13  2  0
 13 14  1  0
 13 15  1  0
 15 16  2  0
 16 17  1  0
 17 18  3  0
  8  2  1  0
 16  9  1  0
M  END
>  <assay_chembl_id>  (639) 
CHEMBL4040321

>  <assay_description>  (639) 
Displacement of [3H]mibolerone from human androgen receptor expressed in African green monkey COS cells after 3.5 hrs by scintillation and luminescene counting

>  <parent_molecule_chembl_id>  (639) 
CHEMBL4104046

>  <canonical_smiles>  (639) 
Cn1c(C#N)ccc1-c1c(F)cc(O)cc1C#N

>  <standard_type>  (639) 
IC50

>  <standard_relation>  (639) 
=

>  <standard_value>  (639) 
67.4

>  <standard_units>  (639) 
nM

>  <target_pref_name>  (639) 
Androgen Receptor

>  <target_chembl_id>  (639) 
CHEMBL1871

>  <target_organism>  (639) 
Homo sapiens

>  <pchembl_median>  (639) 
6.04

$$$$
CHEMBL4069026
     RDKit          2D

 17 18  0  0  0  0  0  0  0  0999 V2000
   -0.5773   -4.2803    0.0000 C   0  0  0  0  0  0  0  0  0  0  0  0
    0.8899   -3.9684    0.0000 N   0  0  0  0  0  0  0  0  0  0  0  0
    2.0046   -4.9721    0.0000 C   0  0  0  0  0  0  0  0  0  0  0  0
    1.8478   -6.4639    0.0000 C   0  0  0  0  0  0  0  0  0  0  0  0
    1.6910   -7.9557    0.0000 N   0  0  0  0  0  0  0  0  0  0  0  0
    3.3037   -4.2221    0.0000 C   0  0  0  0  0  0  0  0  0  0  0  0
    2.9918   -2.7549    0.0000 C   0  0  0  0  0  0  0  0  0  0  0  0
    1.5000   -2.5981    0.0000 C   0  0  0  0  0  0  0  0  0  0  0  0
    0.7500   -1.2990    0.0000 C   0  0  0  0  0  0  0  0  0  0  0  0
    1.5000    0.0000    0.0000 C   0  0  0  0  0  0  0  0  0  0  0  0
    0.7500    1.2990    0.0000 C   0  0  0  0  0  0  0  0  0  0  0  0
   -0.7500    1.2990    0.0000 C   0  0  0  0  0  0  0  0  0  0  0  0
   -1.5000    2.5981    0.0000 O   0  0  0  0  0  0  0  0  0  0  0  0
   -1.5000    0.0000    0.0000 C   0  0  0  0  0  0  0  0  0  0  0  0
   -3.0000    0.0000    0.0000 F   0  0  0  0  0  0  0  0  0  0  0  0
   -0.7500   -1.2990    0.0000 C   0  0  0  0  0  0  0  0  0  0  0  0
   -1.5000   -2.5981    0.0000 F   0  0  0  0  0  0  0  0  0  0  0  0
  1  2  1  0
  2  3  1  0
  3  4  1  0
  4  5  3  0
  3  6  2  0
  6  7  1  0
  7  8  2  0
  8  9  1  0
  9 10  2  0
 10 11  1  0
 11 12  2  0
 12 13  1  0
 12 14  1  0
 14 15  1  0
 14 16  2  0
 16 17  1  0
  8  2  1  0
 16  9  1  0
M  END
>  <assay_chembl_id>  (640) 
CHEMBL4040321

>  <assay_description>  (640) 
Displacement of [3H]mibolerone from human androgen receptor expressed in African green monkey COS cells after 3.5 hrs by scintillation and luminescene counting

>  <parent_molecule_chembl_id>  (640) 
CHEMBL4069026

>  <canonical_smiles>  (640) 
Cn1c(C#N)ccc1-c1ccc(O)c(F)c1F

>  <standard_type>  (640) 
IC50

>  <standard_relation>  (640) 
=

>  <standard_value>  (640) 
36.8

>  <standard_units>  (640) 
nM

>  <target_pref_name>  (640) 
Androgen Receptor

>  <target_chembl_id>  (640) 
CHEMBL1871

>  <target_organism>  (640) 
Homo sapiens

>  <pchembl_median>  (640) 
6.41

$$$$
CHEMBL4091403
     RDKit          2D

 17 18  0  0  0  0  0  0  0  0999 V2000
   -0.5773   -4.2803    0.0000 C   0  0  0  0  0  0  0  0  0  0  0  0
    0.8899   -3.9684    0.0000 N   0  0  0  0  0  0  0  0  0  0  0  0
    2.0046   -4.9721    0.0000 C   0  0  0  0  0  0  0  0  0  0  0  0
    1.8478   -6.4639    0.0000 C   0  0  0  0  0  0  0  0  0  0  0  0
    1.6910   -7.9557    0.0000 N   0  0  0  0  0  0  0  0  0  0  0  0
    3.3037   -4.2221    0.0000 C   0  0  0  0  0  0  0  0  0  0  0  0
    2.9918   -2.7549    0.0000 C   0  0  0  0  0  0  0  0  0  0  0  0
    1.5000   -2.5981    0.0000 C   0  0  0  0  0  0  0  0  0  0  0  0
    0.7500   -1.2990    0.0000 C   0  0  0  0  0  0  0  0  0  0  0  0
    1.5000    0.0000    0.0000 C   0  0  0  0  0  0  0  0  0  0  0  0
    0.7500    1.2990    0.0000 C   0  0  0  0  0  0  0  0  0  0  0  0
    1.5000    2.5981    0.0000 F   0  0  0  0  0  0  0  0  0  0  0  0
   -0.7500    1.2990    0.0000 C   0  0  0  0  0  0  0  0  0  0  0  0
   -1.5000    2.5981    0.0000 O   0  0  0  0  0  0  0  0  0  0  0  0
   -1.5000    0.0000    0.0000 C   0  0  0  0  0  0  0  0  0  0  0  0
   -0.7500   -1.2990    0.0000 C   0  0  0  0  0  0  0  0  0  0  0  0
   -1.5000   -2.5981    0.0000 F   0  0  0  0  0  0  0  0  0  0  0  0
  1  2  1  0
  2  3  1  0
  3  4  1  0
  4  5  3  0
  3  6  2  0
  6  7  1  0
  7  8  2  0
  8  9  1  0
  9 10  2  0
 10 11  1  0
 11 12  1  0
 11 13  2  0
 13 14  1  0
 13 15  1  0
 15 16  2  0
 16 17  1  0
  8  2  1  0
 16  9  1  0
M  END
>  <assay_chembl_id>  (641) 
CHEMBL4040321

>  <assay_description>  (641) 
Displacement of [3H]mibolerone from human androgen receptor expressed in African green monkey COS cells after 3.5 hrs by scintillation and luminescene counting

>  <parent_molecule_chembl_id>  (641) 
CHEMBL4091403

>  <canonical_smiles>  (641) 
Cn1c(C#N)ccc1-c1cc(F)c(O)cc1F

>  <standard_type>  (641) 
IC50

>  <standard_relation>  (641) 
=

>  <standard_value>  (641) 
85.8

>  <standard_units>  (641) 
nM

>  <target_pref_name>  (641) 
Androgen Receptor

>  <target_chembl_id>  (641) 
CHEMBL1871

>  <target_organism>  (641) 
Homo sapiens

>  <pchembl_median>  (641) 
5.51

$$$$
CHEMBL4095364
     RDKit          2D

 17 18  0  0  0  0  0  0  0  0999 V2000
   -0.5773   -4.2803    0.0000 C   0  0  0  0  0  0  0  0  0  0  0  0
    0.8899   -3.9684    0.0000 N   0  0  0  0  0  0  0  0  0  0  0  0
    2.0046   -4.9721    0.0000 C   0  0  0  0  0  0  0  0  0  0  0  0
    1.8478   -6.4639    0.0000 C   0  0  0  0  0  0  0  0  0  0  0  0
    1.6910   -7.9557    0.0000 N   0  0  0  0  0  0  0  0  0  0  0  0
    3.3037   -4.2221    0.0000 C   0  0  0  0  0  0  0  0  0  0  0  0
    2.9918   -2.7549    0.0000 C   0  0  0  0  0  0  0  0  0  0  0  0
    1.5000   -2.5981    0.0000 C   0  0  0  0  0  0  0  0  0  0  0  0
    0.7500   -1.2990    0.0000 C   0  0  0  0  0  0  0  0  0  0  0  0
    1.5000    0.0000    0.0000 C   0  0  0  0  0  0  0  0  0  0  0  0
    3.0000    0.0000    0.0000 F   0  0  0  0  0  0  0  0  0  0  0  0
    0.7500    1.2990    0.0000 C   0  0  0  0  0  0  0  0  0  0  0  0
   -0.7500    1.2990    0.0000 C   0  0  0  0  0  0  0  0  0  0  0  0
   -1.5000    2.5981    0.0000 O   0  0  0  0  0  0  0  0  0  0  0  0
   -1.5000    0.0000    0.0000 C   0  0  0  0  0  0  0  0  0  0  0  0
   -0.7500   -1.2990    0.0000 C   0  0  0  0  0  0  0  0  0  0  0  0
   -1.5000   -2.5981    0.0000 F   0  0  0  0  0  0  0  0  0  0  0  0
  1  2  1  0
  2  3  1  0
  3  4  1  0
  4  5  3  0
  3  6  2  0
  6  7  1  0
  7  8  2  0
  8  9  1  0
  9 10  2  0
 10 11  1  0
 10 12  1  0
 12 13  2  0
 13 14  1  0
 13 15  1  0
 15 16  2  0
 16 17  1  0
  8  2  1  0
 16  9  1  0
M  END
>  <assay_chembl_id>  (642) 
CHEMBL4040321

>  <assay_description>  (642) 
Displacement of [3H]mibolerone from human androgen receptor expressed in African green monkey COS cells after 3.5 hrs by scintillation and luminescene counting

>  <parent_molecule_chembl_id>  (642) 
CHEMBL4095364

>  <canonical_smiles>  (642) 
Cn1c(C#N)ccc1-c1c(F)cc(O)cc1F

>  <standard_type>  (642) 
IC50

>  <standard_relation>  (642) 
=

>  <standard_value>  (642) 
1.6

>  <standard_units>  (642) 
nM

>  <target_pref_name>  (642) 
Androgen Receptor

>  <target_chembl_id>  (642) 
CHEMBL1871

>  <target_organism>  (642) 
Homo sapiens

>  <pchembl_median>  (642) 
6.58

$$$$
CHEMBL4074927
     RDKit          2D

 19 20  0  0  0  0  0  0  0  0999 V2000
   -0.5773   -4.2803    0.0000 C   0  0  0  0  0  0  0  0  0  0  0  0
    0.8899   -3.9684    0.0000 N   0  0  0  0  0  0  0  0  0  0  0  0
    2.0046   -4.9721    0.0000 C   0  0  0  0  0  0  0  0  0  0  0  0
    1.8478   -6.4639    0.0000 C   0  0  0  0  0  0  0  0  0  0  0  0
    1.6910   -7.9557    0.0000 N   0  0  0  0  0  0  0  0  0  0  0  0
    3.3037   -4.2221    0.0000 C   0  0  0  0  0  0  0  0  0  0  0  0
    2.9918   -2.7549    0.0000 C   0  0  0  0  0  0  0  0  0  0  0  0
    1.5000   -2.5981    0.0000 C   0  0  0  0  0  0  0  0  0  0  0  0
    0.7500   -1.2990    0.0000 C   0  0  0  0  0  0  0  0  0  0  0  0
    1.5000    0.0000    0.0000 C   0  0  0  0  0  0  0  0  0  0  0  0
    0.7500    1.2990    0.0000 C   0  0  0  0  0  0  0  0  0  0  0  0
   -0.7500    1.2990    0.0000 C   0  0  0  0  0  0  0  0  0  0  0  0
   -1.5000    2.5981    0.0000 O   0  0  0  0  0  0  0  0  0  0  0  0
   -1.5000    0.0000    0.0000 C   0  0  0  0  0  0  0  0  0  0  0  0
   -0.7500   -1.2990    0.0000 C   0  0  0  0  0  0  0  0  0  0  0  0
   -1.5000   -2.5981    0.0000 S   0  0  0  0  0  0  0  0  0  0  0  0
   -2.2500   -3.8971    0.0000 C   0  0  0  0  0  0  0  0  0  0  0  0
   -0.2010   -3.3481    0.0000 O   0  0  0  0  0  0  0  0  0  0  0  0
   -2.7990   -1.8481    0.0000 O   0  0  0  0  0  0  0  0  0  0  0  0
  1  2  1  0
  2  3  1  0
  3  4  1  0
  4  5  3  0
  3  6  2  0
  6  7  1  0
  7  8  2  0
  8  9  1  0
  9 10  2  0
 10 11  1  0
 11 12  2  0
 12 13  1  0
 12 14  1  0
 14 15  2  0
 15 16  1  0
 16 17  1  0
 16 18  2  0
 16 19  2  0
  8  2  1  0
 15  9  1  0
M  END
>  <assay_chembl_id>  (643) 
CHEMBL4040321

>  <assay_description>  (643) 
Displacement of [3H]mibolerone from human androgen receptor expressed in African green monkey COS cells after 3.5 hrs by scintillation and luminescene counting

>  <parent_molecule_chembl_id>  (643) 
CHEMBL4074927

>  <canonical_smiles>  (643) 
Cn1c(C#N)ccc1-c1ccc(O)cc1S(C)(=O)=O

>  <standard_type>  (643) 
IC50

>  <standard_relation>  (643) 
=

>  <standard_value>  (643) 
1465.9

>  <standard_units>  (643) 
nM

>  <target_pref_name>  (643) 
Androgen Receptor

>  <target_chembl_id>  (643) 
CHEMBL1871

>  <target_organism>  (643) 
Homo sapiens

>  <pchembl_median>  (643) 
7.4

$$$$
CHEMBL4087674
     RDKit          2D

 19 20  0  0  0  0  0  0  0  0999 V2000
    5.2500   -1.2990    0.0000 C   0  0  0  0  0  0  0  0  0  0  0  0
    3.7500   -1.2990    0.0000 O   0  0  0  0  0  0  0  0  0  0  0  0
    3.0000    0.0000    0.0000 C   0  0  0  0  0  0  0  0  0  0  0  0
    3.7500    1.2990    0.0000 O   0  0  0  0  0  0  0  0  0  0  0  0
    1.5000    0.0000    0.0000 C   0  0  0  0  0  0  0  0  0  0  0  0
    0.7500   -1.2990    0.0000 C   0  0  0  0  0  0  0  0  0  0  0  0
   -0.7500   -1.2990    0.0000 C   0  0  0  0  0  0  0  0  0  0  0  0
   -1.5000   -2.5981    0.0000 O   0  0  0  0  0  0  0  0  0  0  0  0
   -1.5000    0.0000    0.0000 C   0  0  0  0  0  0  0  0  0  0  0  0
   -0.7500    1.2990    0.0000 C   0  0  0  0  0  0  0  0  0  0  0  0
    0.7500    1.2990    0.0000 C   0  0  0  0  0  0  0  0  0  0  0  0
    1.5000    2.5981    0.0000 C   0  0  0  0  0  0  0  0  0  0  0  0
    2.9918    2.7549    0.0000 C   0  0  0  0  0  0  0  0  0  0  0  0
    3.3037    4.2221    0.0000 C   0  0  0  0  0  0  0  0  0  0  0  0
    2.0046    4.9721    0.0000 C   0  0  0  0  0  0  0  0  0  0  0  0
    1.8478    6.4639    0.0000 C   0  0  0  0  0  0  0  0  0  0  0  0
    1.6910    7.9557    0.0000 N   0  0  0  0  0  0  0  0  0  0  0  0
    0.8899    3.9684    0.0000 N   0  0  0  0  0  0  0  0  0  0  0  0
   -0.5773    4.2803    0.0000 C   0  0  0  0  0  0  0  0  0  0  0  0
  1  2  1  0
  2  3  1  0
  3  4  2  0
  3  5  1  0
  5  6  2  0
  6  7  1  0
  7  8  1  0
  7  9  2  0
  9 10  1  0
 10 11  2  0
 11 12  1  0
 12 13  2  0
 13 14  1  0
 14 15  2  0
 15 16  1  0
 16 17  3  0
 15 18  1  0
 18 19  1  0
 11  5  1  0
 18 12  1  0
M  END
>  <assay_chembl_id>  (644) 
CHEMBL4040321

>  <assay_description>  (644) 
Displacement of [3H]mibolerone from human androgen receptor expressed in African green monkey COS cells after 3.5 hrs by scintillation and luminescene counting

>  <parent_molecule_chembl_id>  (644) 
CHEMBL4087674

>  <canonical_smiles>  (644) 
COC(=O)c1cc(O)ccc1-c1ccc(C#N)n1C

>  <standard_type>  (644) 
IC50

>  <standard_relation>  (644) 
=

>  <standard_value>  (644) 
330.2

>  <standard_units>  (644) 
nM

>  <target_pref_name>  (644) 
Androgen Receptor

>  <target_chembl_id>  (644) 
CHEMBL1871

>  <target_organism>  (644) 
Homo sapiens

>  <pchembl_median>  (644) 
6.16

$$$$
CHEMBL4066319
     RDKit          2D

 17 18  0  0  0  0  0  0  0  0999 V2000
   -0.5773   -4.2803    0.0000 C   0  0  0  0  0  0  0  0  0  0  0  0
    0.8899   -3.9684    0.0000 N   0  0  0  0  0  0  0  0  0  0  0  0
    2.0046   -4.9721    0.0000 C   0  0  0  0  0  0  0  0  0  0  0  0
    1.8478   -6.4639    0.0000 C   0  0  0  0  0  0  0  0  0  0  0  0
    1.6910   -7.9557    0.0000 N   0  0  0  0  0  0  0  0  0  0  0  0
    3.3037   -4.2221    0.0000 C   0  0  0  0  0  0  0  0  0  0  0  0
    2.9918   -2.7549    0.0000 C   0  0  0  0  0  0  0  0  0  0  0  0
    1.5000   -2.5981    0.0000 C   0  0  0  0  0  0  0  0  0  0  0  0
    0.7500   -1.2990    0.0000 C   0  0  0  0  0  0  0  0  0  0  0  0
    1.5000    0.0000    0.0000 C   0  0  0  0  0  0  0  0  0  0  0  0
    0.7500    1.2990    0.0000 C   0  0  0  0  0  0  0  0  0  0  0  0
   -0.7500    1.2990    0.0000 C   0  0  0  0  0  0  0  0  0  0  0  0
   -1.5000    2.5981    0.0000 O   0  0  0  0  0  0  0  0  0  0  0  0
   -1.5000    0.0000    0.0000 C   0  0  0  0  0  0  0  0  0  0  0  0
   -0.7500   -1.2990    0.0000 C   0  0  0  0  0  0  0  0  0  0  0  0
   -1.5000   -2.5981    0.0000 C   0  0  0  0  0  0  0  0  0  0  0  0
   -2.2500   -3.8971    0.0000 N   0  0  0  0  0  0  0  0  0  0  0  0
  1  2  1  0
  2  3  1  0
  3  4  1  0
  4  5  3  0
  3  6  2  0
  6  7  1  0
  7  8  2  0
  8  9  1  0
  9 10  2  0
 10 11  1  0
 11 12  2  0
 12 13  1  0
 12 14  1  0
 14 15  2  0
 15 16  1  0
 16 17  3  0
  8  2  1  0
 15  9  1  0
M  END
>  <assay_chembl_id>  (645) 
CHEMBL4040321

>  <assay_description>  (645) 
Displacement of [3H]mibolerone from human androgen receptor expressed in African green monkey COS cells after 3.5 hrs by scintillation and luminescene counting

>  <parent_molecule_chembl_id>  (645) 
CHEMBL4066319

>  <canonical_smiles>  (645) 
Cn1c(C#N)ccc1-c1ccc(O)cc1C#N

>  <standard_type>  (645) 
IC50

>  <standard_relation>  (645) 
=

>  <standard_value>  (645) 
6.8

>  <standard_units>  (645) 
nM

>  <target_pref_name>  (645) 
Androgen Receptor

>  <target_chembl_id>  (645) 
CHEMBL1871

>  <target_organism>  (645) 
Homo sapiens

>  <pchembl_median>  (645) 
7.32

$$$$
CHEMBL4100251
     RDKit          2D

 18 19  0  0  0  0  0  0  0  0999 V2000
    3.9955   -1.6402    0.0000 C   0  0  0  0  0  0  0  0  0  0  0  0
    2.9918   -2.7549    0.0000 N   0  0  0  0  0  0  0  0  0  0  0  0
    3.3037   -4.2221    0.0000 C   0  0  0  0  0  0  0  0  0  0  0  0
    4.6740   -4.8322    0.0000 C   0  0  0  0  0  0  0  0  0  0  0  0
    6.0443   -5.4423    0.0000 N   0  0  0  0  0  0  0  0  0  0  0  0
    2.0046   -4.9721    0.0000 C   0  0  0  0  0  0  0  0  0  0  0  0
    0.8899   -3.9684    0.0000 C   0  0  0  0  0  0  0  0  0  0  0  0
    1.5000   -2.5981    0.0000 C   0  0  0  0  0  0  0  0  0  0  0  0
    0.7500   -1.2990    0.0000 C   0  0  0  0  0  0  0  0  0  0  0  0
    1.5000    0.0000    0.0000 C   0  0  0  0  0  0  0  0  0  0  0  0
    0.7500    1.2990    0.0000 C   0  0  0  0  0  0  0  0  0  0  0  0
   -0.7500    1.2990    0.0000 C   0  0  0  0  0  0  0  0  0  0  0  0
   -1.5000    2.5981    0.0000 O   0  0  0  0  0  0  0  0  0  0  0  0
   -1.5000    0.0000    0.0000 C   0  0  0  0  0  0  0  0  0  0  0  0
   -0.7500   -1.2990    0.0000 C   0  0  0  0  0  0  0  0  0  0  0  0
   -1.5000   -2.5981    0.0000 N   0  0  0  0  0  4  0  0  0  0  0  0
   -0.7500   -3.8971    0.0000 O   0  0  0  0  0  0  0  0  0  0  0  0
   -3.0000   -2.5981    0.0000 O   0  0  0  0  0  1  0  0  0  0  0  0
  1  2  1  0
  2  3  1  0
  3  4  1  0
  4  5  3  0
  3  6  2  0
  6  7  1  0
  7  8  2  0
  8  9  1  0
  9 10  2  0
 10 11  1  0
 11 12  2  0
 12 13  1  0
 12 14  1  0
 14 15  2  0
 15 16  1  0
 16 17  2  0
 16 18  1  0
  8  2  1  0
 15  9  1  0
M  CHG  2  16   1  18  -1
M  END
>  <assay_chembl_id>  (646) 
CHEMBL4040321

>  <assay_description>  (646) 
Displacement of [3H]mibolerone from human androgen receptor expressed in African green monkey COS cells after 3.5 hrs by scintillation and luminescene counting

>  <parent_molecule_chembl_id>  (646) 
CHEMBL4100251

>  <canonical_smiles>  (646) 
Cn1c(C#N)ccc1-c1ccc(O)cc1[N+](=O)[O-]

>  <standard_type>  (646) 
IC50

>  <standard_relation>  (646) 
=

>  <standard_value>  (646) 
65.0

>  <standard_units>  (646) 
nM

>  <target_pref_name>  (646) 
Androgen Receptor

>  <target_chembl_id>  (646) 
CHEMBL1871

>  <target_organism>  (646) 
Homo sapiens

>  <pchembl_median>  (646) 
5.8

$$$$
CHEMBL4073399
     RDKit          2D

 19 20  0  0  0  0  0  0  0  0999 V2000
   -0.5773   -4.2803    0.0000 C   0  0  0  0  0  0  0  0  0  0  0  0
    0.8899   -3.9684    0.0000 N   0  0  0  0  0  0  0  0  0  0  0  0
    2.0046   -4.9721    0.0000 C   0  0  0  0  0  0  0  0  0  0  0  0
    1.8478   -6.4639    0.0000 C   0  0  0  0  0  0  0  0  0  0  0  0
    1.6910   -7.9557    0.0000 N   0  0  0  0  0  0  0  0  0  0  0  0
    3.3037   -4.2221    0.0000 C   0  0  0  0  0  0  0  0  0  0  0  0
    2.9918   -2.7549    0.0000 C   0  0  0  0  0  0  0  0  0  0  0  0
    1.5000   -2.5981    0.0000 C   0  0  0  0  0  0  0  0  0  0  0  0
    0.7500   -1.2990    0.0000 C   0  0  0  0  0  0  0  0  0  0  0  0
    1.5000    0.0000    0.0000 C   0  0  0  0  0  0  0  0  0  0  0  0
    0.7500    1.2990    0.0000 C   0  0  0  0  0  0  0  0  0  0  0  0
   -0.7500    1.2990    0.0000 C   0  0  0  0  0  0  0  0  0  0  0  0
   -1.5000    2.5981    0.0000 O   0  0  0  0  0  0  0  0  0  0  0  0
   -1.5000    0.0000    0.0000 C   0  0  0  0  0  0  0  0  0  0  0  0
   -0.7500   -1.2990    0.0000 C   0  0  0  0  0  0  0  0  0  0  0  0
   -1.5000   -2.5981    0.0000 C   0  0  0  0  0  0  0  0  0  0  0  0
   -2.2500   -3.8971    0.0000 F   0  0  0  0  0  0  0  0  0  0  0  0
   -2.7990   -1.8481    0.0000 F   0  0  0  0  0  0  0  0  0  0  0  0
   -0.2010   -3.3481    0.0000 F   0  0  0  0  0  0  0  0  0  0  0  0
  1  2  1  0
  2  3  1  0
  3  4  1  0
  4  5  3  0
  3  6  2  0
  6  7  1  0
  7  8  2  0
  8  9  1  0
  9 10  2  0
 10 11  1  0
 11 12  2  0
 12 13  1  0
 12 14  1  0
 14 15  2  0
 15 16  1  0
 16 17  1  0
 16 18  1  0
 16 19  1  0
  8  2  1  0
 15  9  1  0
M  END
>  <assay_chembl_id>  (647) 
CHEMBL4040321

>  <assay_description>  (647) 
Displacement of [3H]mibolerone from human androgen receptor expressed in African green monkey COS cells after 3.5 hrs by scintillation and luminescene counting

>  <parent_molecule_chembl_id>  (647) 
CHEMBL4073399

>  <canonical_smiles>  (647) 
Cn1c(C#N)ccc1-c1ccc(O)cc1C(F)(F)F

>  <standard_type>  (647) 
IC50

>  <standard_relation>  (647) 
=

>  <standard_value>  (647) 
14.8

>  <standard_units>  (647) 
nM

>  <target_pref_name>  (647) 
Androgen Receptor

>  <target_chembl_id>  (647) 
CHEMBL1871

>  <target_organism>  (647) 
Homo sapiens

>  <pchembl_median>  (647) 
6.63

$$$$
CHEMBL4088158
     RDKit          2D

 16 17  0  0  0  0  0  0  0  0999 V2000
   -0.5773   -4.2803    0.0000 C   0  0  0  0  0  0  0  0  0  0  0  0
    0.8899   -3.9684    0.0000 N   0  0  0  0  0  0  0  0  0  0  0  0
    2.0046   -4.9721    0.0000 C   0  0  0  0  0  0  0  0  0  0  0  0
    1.8478   -6.4639    0.0000 C   0  0  0  0  0  0  0  0  0  0  0  0
    1.6910   -7.9557    0.0000 N   0  0  0  0  0  0  0  0  0  0  0  0
    3.3037   -4.2221    0.0000 C   0  0  0  0  0  0  0  0  0  0  0  0
    2.9918   -2.7549    0.0000 C   0  0  0  0  0  0  0  0  0  0  0  0
    1.5000   -2.5981    0.0000 C   0  0  0  0  0  0  0  0  0  0  0  0
    0.7500   -1.2990    0.0000 C   0  0  0  0  0  0  0  0  0  0  0  0
    1.5000    0.0000    0.0000 C   0  0  0  0  0  0  0  0  0  0  0  0
    0.7500    1.2990    0.0000 C   0  0  0  0  0  0  0  0  0  0  0  0
   -0.7500    1.2990    0.0000 C   0  0  0  0  0  0  0  0  0  0  0  0
   -1.5000    2.5981    0.0000 O   0  0  0  0  0  0  0  0  0  0  0  0
   -1.5000    0.0000    0.0000 C   0  0  0  0  0  0  0  0  0  0  0  0
   -0.7500   -1.2990    0.0000 C   0  0  0  0  0  0  0  0  0  0  0  0
   -1.5000   -2.5981    0.0000 Cl  0  0  0  0  0  0  0  0  0  0  0  0
  1  2  1  0
  2  3  1  0
  3  4  1  0
  4  5  3  0
  3  6  2  0
  6  7  1  0
  7  8  2  0
  8  9  1  0
  9 10  2  0
 10 11  1  0
 11 12  2  0
 12 13  1  0
 12 14  1  0
 14 15  2  0
 15 16  1  0
  8  2  1  0
 15  9  1  0
M  END
>  <assay_chembl_id>  (648) 
CHEMBL4040321

>  <assay_description>  (648) 
Displacement of [3H]mibolerone from human androgen receptor expressed in African green monkey COS cells after 3.5 hrs by scintillation and luminescene counting

>  <parent_molecule_chembl_id>  (648) 
CHEMBL4088158

>  <canonical_smiles>  (648) 
Cn1c(C#N)ccc1-c1ccc(O)cc1Cl

>  <standard_type>  (648) 
IC50

>  <standard_relation>  (648) 
=

>  <standard_value>  (648) 
1.4

>  <standard_units>  (648) 
nM

>  <target_pref_name>  (648) 
Androgen Receptor

>  <target_chembl_id>  (648) 
CHEMBL1871

>  <target_organism>  (648) 
Homo sapiens

>  <pchembl_median>  (648) 
7.06

$$$$
CHEMBL4062016
     RDKit          2D

 16 17  0  0  0  0  0  0  0  0999 V2000
   -0.5773   -4.2803    0.0000 C   0  0  0  0  0  0  0  0  0  0  0  0
    0.8899   -3.9684    0.0000 N   0  0  0  0  0  0  0  0  0  0  0  0
    2.0046   -4.9721    0.0000 C   0  0  0  0  0  0  0  0  0  0  0  0
    1.8478   -6.4639    0.0000 C   0  0  0  0  0  0  0  0  0  0  0  0
    1.6910   -7.9557    0.0000 N   0  0  0  0  0  0  0  0  0  0  0  0
    3.3037   -4.2221    0.0000 C   0  0  0  0  0  0  0  0  0  0  0  0
    2.9918   -2.7549    0.0000 C   0  0  0  0  0  0  0  0  0  0  0  0
    1.5000   -2.5981    0.0000 C   0  0  0  0  0  0  0  0  0  0  0  0
    0.7500   -1.2990    0.0000 C   0  0  0  0  0  0  0  0  0  0  0  0
    1.5000    0.0000    0.0000 C   0  0  0  0  0  0  0  0  0  0  0  0
    0.7500    1.2990    0.0000 C   0  0  0  0  0  0  0  0  0  0  0  0
   -0.7500    1.2990    0.0000 C   0  0  0  0  0  0  0  0  0  0  0  0
   -1.5000    2.5981    0.0000 O   0  0  0  0  0  0  0  0  0  0  0  0
   -1.5000    0.0000    0.0000 C   0  0  0  0  0  0  0  0  0  0  0  0
   -3.0000    0.0000    0.0000 Cl  0  0  0  0  0  0  0  0  0  0  0  0
   -0.7500   -1.2990    0.0000 C   0  0  0  0  0  0  0  0  0  0  0  0
  1  2  1  0
  2  3  1  0
  3  4  1  0
  4  5  3  0
  3  6  2  0
  6  7  1  0
  7  8  2  0
  8  9  1  0
  9 10  2  0
 10 11  1  0
 11 12  2  0
 12 13  1  0
 12 14  1  0
 14 15  1  0
 14 16  2  0
  8  2  1  0
 16  9  1  0
M  END
>  <assay_chembl_id>  (649) 
CHEMBL4040321

>  <assay_description>  (649) 
Displacement of [3H]mibolerone from human androgen receptor expressed in African green monkey COS cells after 3.5 hrs by scintillation and luminescene counting

>  <parent_molecule_chembl_id>  (649) 
CHEMBL4062016

>  <canonical_smiles>  (649) 
Cn1c(C#N)ccc1-c1ccc(O)c(Cl)c1

>  <standard_type>  (649) 
IC50

>  <standard_relation>  (649) 
=

>  <standard_value>  (649) 
47.6

>  <standard_units>  (649) 
nM

>  <target_pref_name>  (649) 
Androgen Receptor

>  <target_chembl_id>  (649) 
CHEMBL1871

>  <target_organism>  (649) 
Homo sapiens

>  <pchembl_median>  (649) 
7.0

$$$$
CHEMBL4095883
     RDKit          2D

 16 17  0  0  0  0  0  0  0  0999 V2000
   -0.5773   -4.2803    0.0000 C   0  0  0  0  0  0  0  0  0  0  0  0
    0.8899   -3.9684    0.0000 N   0  0  0  0  0  0  0  0  0  0  0  0
    2.0046   -4.9721    0.0000 C   0  0  0  0  0  0  0  0  0  0  0  0
    1.8478   -6.4639    0.0000 C   0  0  0  0  0  0  0  0  0  0  0  0
    1.6910   -7.9557    0.0000 N   0  0  0  0  0  0  0  0  0  0  0  0
    3.3037   -4.2221    0.0000 C   0  0  0  0  0  0  0  0  0  0  0  0
    2.9918   -2.7549    0.0000 C   0  0  0  0  0  0  0  0  0  0  0  0
    1.5000   -2.5981    0.0000 C   0  0  0  0  0  0  0  0  0  0  0  0
    0.7500   -1.2990    0.0000 C   0  0  0  0  0  0  0  0  0  0  0  0
    1.5000    0.0000    0.0000 C   0  0  0  0  0  0  0  0  0  0  0  0
    0.7500    1.2990    0.0000 C   0  0  0  0  0  0  0  0  0  0  0  0
   -0.7500    1.2990    0.0000 C   0  0  0  0  0  0  0  0  0  0  0  0
   -1.5000    2.5981    0.0000 O   0  0  0  0  0  0  0  0  0  0  0  0
   -1.5000    0.0000    0.0000 C   0  0  0  0  0  0  0  0  0  0  0  0
   -0.7500   -1.2990    0.0000 C   0  0  0  0  0  0  0  0  0  0  0  0
   -1.5000   -2.5981    0.0000 F   0  0  0  0  0  0  0  0  0  0  0  0
  1  2  1  0
  2  3  1  0
  3  4  1  0
  4  5  3  0
  3  6  2  0
  6  7  1  0
  7  8  2  0
  8  9  1  0
  9 10  2  0
 10 11  1  0
 11 12  2  0
 12 13  1  0
 12 14  1  0
 14 15  2  0
 15 16  1  0
  8  2  1  0
 15  9  1  0
M  END
>  <assay_chembl_id>  (650) 
CHEMBL4040321

>  <assay_description>  (650) 
Displacement of [3H]mibolerone from human androgen receptor expressed in African green monkey COS cells after 3.5 hrs by scintillation and luminescene counting

>  <parent_molecule_chembl_id>  (650) 
CHEMBL4095883

>  <canonical_smiles>  (650) 
Cn1c(C#N)ccc1-c1ccc(O)cc1F

>  <standard_type>  (650) 
IC50

>  <standard_relation>  (650) 
=

>  <standard_value>  (650) 
3.2

>  <standard_units>  (650) 
nM

>  <target_pref_name>  (650) 
Androgen Receptor

>  <target_chembl_id>  (650) 
CHEMBL1871

>  <target_organism>  (650) 
Homo sapiens

>  <pchembl_median>  (650) 
6.0

$$$$
CHEMBL4068562
     RDKit          2D

 16 17  0  0  0  0  0  0  0  0999 V2000
   -0.5773   -4.2803    0.0000 C   0  0  0  0  0  0  0  0  0  0  0  0
    0.8899   -3.9684    0.0000 N   0  0  0  0  0  0  0  0  0  0  0  0
    2.0046   -4.9721    0.0000 C   0  0  0  0  0  0  0  0  0  0  0  0
    1.8478   -6.4639    0.0000 C   0  0  0  0  0  0  0  0  0  0  0  0
    1.6910   -7.9557    0.0000 N   0  0  0  0  0  0  0  0  0  0  0  0
    3.3037   -4.2221    0.0000 C   0  0  0  0  0  0  0  0  0  0  0  0
    2.9918   -2.7549    0.0000 C   0  0  0  0  0  0  0  0  0  0  0  0
    1.5000   -2.5981    0.0000 C   0  0  0  0  0  0  0  0  0  0  0  0
    0.7500   -1.2990    0.0000 C   0  0  0  0  0  0  0  0  0  0  0  0
    1.5000    0.0000    0.0000 C   0  0  0  0  0  0  0  0  0  0  0  0
    0.7500    1.2990    0.0000 C   0  0  0  0  0  0  0  0  0  0  0  0
   -0.7500    1.2990    0.0000 C   0  0  0  0  0  0  0  0  0  0  0  0
   -1.5000    2.5981    0.0000 O   0  0  0  0  0  0  0  0  0  0  0  0
   -1.5000    0.0000    0.0000 C   0  0  0  0  0  0  0  0  0  0  0  0
   -3.0000    0.0000    0.0000 F   0  0  0  0  0  0  0  0  0  0  0  0
   -0.7500   -1.2990    0.0000 C   0  0  0  0  0  0  0  0  0  0  0  0
  1  2  1  0
  2  3  1  0
  3  4  1  0
  4  5  3  0
  3  6  2  0
  6  7  1  0
  7  8  2  0
  8  9  1  0
  9 10  2  0
 10 11  1  0
 11 12  2  0
 12 13  1  0
 12 14  1  0
 14 15  1  0
 14 16  2  0
  8  2  1  0
 16  9  1  0
M  END
>  <assay_chembl_id>  (651) 
CHEMBL4040321

>  <assay_description>  (651) 
Displacement of [3H]mibolerone from human androgen receptor expressed in African green monkey COS cells after 3.5 hrs by scintillation and luminescene counting

>  <parent_molecule_chembl_id>  (651) 
CHEMBL4068562

>  <canonical_smiles>  (651) 
Cn1c(C#N)ccc1-c1ccc(O)c(F)c1

>  <standard_type>  (651) 
IC50

>  <standard_relation>  (651) 
=

>  <standard_value>  (651) 
59.0

>  <standard_units>  (651) 
nM

>  <target_pref_name>  (651) 
Androgen Receptor

>  <target_chembl_id>  (651) 
CHEMBL1871

>  <target_organism>  (651) 
Homo sapiens

>  <pchembl_median>  (651) 
7.285

$$$$
CHEMBL4103641
     RDKit          2D

 17 18  0  0  0  0  0  0  0  0999 V2000
    3.7500   -1.2990    0.0000 C   0  0  0  0  0  0  0  0  0  0  0  0
    3.0000    0.0000    0.0000 C   0  0  0  0  0  0  0  0  0  0  0  0
    1.5000    0.0000    0.0000 C   0  0  0  0  0  0  0  0  0  0  0  0
    0.7500   -1.2990    0.0000 C   0  0  0  0  0  0  0  0  0  0  0  0
   -0.7500   -1.2990    0.0000 C   0  0  0  0  0  0  0  0  0  0  0  0
   -1.5000   -2.5981    0.0000 C   0  0  0  0  0  0  0  0  0  0  0  0
   -0.8899   -3.9684    0.0000 C   0  0  0  0  0  0  0  0  0  0  0  0
   -2.0046   -4.9721    0.0000 C   0  0  0  0  0  0  0  0  0  0  0  0
   -3.3037   -4.2221    0.0000 C   0  0  0  0  0  0  0  0  0  0  0  0
   -4.6740   -4.8322    0.0000 C   0  0  0  0  0  0  0  0  0  0  0  0
   -6.0443   -5.4423    0.0000 N   0  0  0  0  0  0  0  0  0  0  0  0
   -2.9918   -2.7549    0.0000 N   0  0  0  0  0  0  0  0  0  0  0  0
   -3.9955   -1.6402    0.0000 C   0  0  0  0  0  0  0  0  0  0  0  0
   -1.5000    0.0000    0.0000 C   0  0  0  0  0  0  0  0  0  0  0  0
   -0.7500    1.2990    0.0000 C   0  0  0  0  0  0  0  0  0  0  0  0
    0.7500    1.2990    0.0000 C   0  0  0  0  0  0  0  0  0  0  0  0
    1.5000    2.5981    0.0000 O   0  0  0  0  0  0  0  0  0  0  0  0
  1  2  1  0
  2  3  1  0
  3  4  2  0
  4  5  1  0
  5  6  1  0
  6  7  2  0
  7  8  1  0
  8  9  2  0
  9 10  1  0
 10 11  3  0
  9 12  1  0
 12 13  1  0
  5 14  2  0
 14 15  1  0
 15 16  2  0
 16 17  1  0
 16  3  1  0
 12  6  1  0
M  END
>  <assay_chembl_id>  (652) 
CHEMBL4040321

>  <assay_description>  (652) 
Displacement of [3H]mibolerone from human androgen receptor expressed in African green monkey COS cells after 3.5 hrs by scintillation and luminescene counting

>  <parent_molecule_chembl_id>  (652) 
CHEMBL4103641

>  <canonical_smiles>  (652) 
CCc1cc(-c2ccc(C#N)n2C)ccc1O

>  <standard_type>  (652) 
IC50

>  <standard_relation>  (652) 
=

>  <standard_value>  (652) 
7.1

>  <standard_units>  (652) 
nM

>  <target_pref_name>  (652) 
Androgen Receptor

>  <target_chembl_id>  (652) 
CHEMBL1871

>  <target_organism>  (652) 
Homo sapiens

>  <pchembl_median>  (652) 
6.78

$$$$
CHEMBL4079377
     RDKit          2D

 16 17  0  0  0  0  0  0  0  0999 V2000
    3.0000    0.0000    0.0000 C   0  0  0  0  0  0  0  0  0  0  0  0
    1.5000    0.0000    0.0000 C   0  0  0  0  0  0  0  0  0  0  0  0
    0.7500   -1.2990    0.0000 C   0  0  0  0  0  0  0  0  0  0  0  0
   -0.7500   -1.2990    0.0000 C   0  0  0  0  0  0  0  0  0  0  0  0
   -1.5000   -2.5981    0.0000 O   0  0  0  0  0  0  0  0  0  0  0  0
   -1.5000    0.0000    0.0000 C   0  0  0  0  0  0  0  0  0  0  0  0
   -0.7500    1.2990    0.0000 C   0  0  0  0  0  0  0  0  0  0  0  0
    0.7500    1.2990    0.0000 C   0  0  0  0  0  0  0  0  0  0  0  0
    1.5000    2.5981    0.0000 C   0  0  0  0  0  0  0  0  0  0  0  0
    0.8899    3.9684    0.0000 C   0  0  0  0  0  0  0  0  0  0  0  0
    2.0046    4.9721    0.0000 C   0  0  0  0  0  0  0  0  0  0  0  0
    3.3037    4.2221    0.0000 C   0  0  0  0  0  0  0  0  0  0  0  0
    4.6740    4.8322    0.0000 C   0  0  0  0  0  0  0  0  0  0  0  0
    6.0443    5.4423    0.0000 N   0  0  0  0  0  0  0  0  0  0  0  0
    2.9918    2.7549    0.0000 N   0  0  0  0  0  0  0  0  0  0  0  0
    3.9955    1.6402    0.0000 C   0  0  0  0  0  0  0  0  0  0  0  0
  1  2  1  0
  2  3  2  0
  3  4  1  0
  4  5  1  0
  4  6  2  0
  6  7  1  0
  7  8  2  0
  8  9  1  0
  9 10  2  0
 10 11  1  0
 11 12  2  0
 12 13  1  0
 13 14  3  0
 12 15  1  0
 15 16  1  0
  8  2  1  0
 15  9  1  0
M  END
>  <assay_chembl_id>  (653) 
CHEMBL4040321

>  <assay_description>  (653) 
Displacement of [3H]mibolerone from human androgen receptor expressed in African green monkey COS cells after 3.5 hrs by scintillation and luminescene counting

>  <parent_molecule_chembl_id>  (653) 
CHEMBL4079377

>  <canonical_smiles>  (653) 
Cc1cc(O)ccc1-c1ccc(C#N)n1C

>  <standard_type>  (653) 
IC50

>  <standard_relation>  (653) 
=

>  <standard_value>  (653) 
3.7

>  <standard_units>  (653) 
nM

>  <target_pref_name>  (653) 
Androgen Receptor

>  <target_chembl_id>  (653) 
CHEMBL1871

>  <target_organism>  (653) 
Homo sapiens

>  <pchembl_median>  (653) 
7.34

$$$$
CHEMBL4065842
     RDKit          2D

 16 17  0  0  0  0  0  0  0  0999 V2000
    3.0000    0.0000    0.0000 C   0  0  0  0  0  0  0  0  0  0  0  0
    1.5000    0.0000    0.0000 C   0  0  0  0  0  0  0  0  0  0  0  0
    0.7500   -1.2990    0.0000 C   0  0  0  0  0  0  0  0  0  0  0  0
   -0.7500   -1.2990    0.0000 C   0  0  0  0  0  0  0  0  0  0  0  0
   -1.5000   -2.5981    0.0000 C   0  0  0  0  0  0  0  0  0  0  0  0
   -0.8899   -3.9684    0.0000 C   0  0  0  0  0  0  0  0  0  0  0  0
   -2.0046   -4.9721    0.0000 C   0  0  0  0  0  0  0  0  0  0  0  0
   -3.3037   -4.2221    0.0000 C   0  0  0  0  0  0  0  0  0  0  0  0
   -4.6740   -4.8322    0.0000 C   0  0  0  0  0  0  0  0  0  0  0  0
   -6.0443   -5.4423    0.0000 N   0  0  0  0  0  0  0  0  0  0  0  0
   -2.9918   -2.7549    0.0000 N   0  0  0  0  0  0  0  0  0  0  0  0
   -3.9955   -1.6402    0.0000 C   0  0  0  0  0  0  0  0  0  0  0  0
   -1.5000    0.0000    0.0000 C   0  0  0  0  0  0  0  0  0  0  0  0
   -0.7500    1.2990    0.0000 C   0  0  0  0  0  0  0  0  0  0  0  0
    0.7500    1.2990    0.0000 C   0  0  0  0  0  0  0  0  0  0  0  0
    1.5000    2.5981    0.0000 O   0  0  0  0  0  0  0  0  0  0  0  0
  1  2  1  0
  2  3  2  0
  3  4  1  0
  4  5  1  0
  5  6  2  0
  6  7  1  0
  7  8  2  0
  8  9  1  0
  9 10  3  0
  8 11  1  0
 11 12  1  0
  4 13  2  0
 13 14  1  0
 14 15  2  0
 15 16  1  0
 15  2  1  0
 11  5  1  0
M  END
>  <assay_chembl_id>  (654) 
CHEMBL4040321

>  <assay_description>  (654) 
Displacement of [3H]mibolerone from human androgen receptor expressed in African green monkey COS cells after 3.5 hrs by scintillation and luminescene counting

>  <parent_molecule_chembl_id>  (654) 
CHEMBL4065842

>  <canonical_smiles>  (654) 
Cc1cc(-c2ccc(C#N)n2C)ccc1O

>  <standard_type>  (654) 
IC50

>  <standard_relation>  (654) 
=

>  <standard_value>  (654) 
2.9

>  <standard_units>  (654) 
nM

>  <target_pref_name>  (654) 
Androgen Receptor

>  <target_chembl_id>  (654) 
CHEMBL1871

>  <target_organism>  (654) 
Homo sapiens

>  <pchembl_median>  (654) 
6.39

$$$$
CHEMBL4087256
     RDKit          2D

 15 16  0  0  0  0  0  0  0  0999 V2000
   -0.5773   -4.2803    0.0000 C   0  0  0  0  0  0  0  0  0  0  0  0
    0.8899   -3.9684    0.0000 N   0  0  0  0  0  0  0  0  0  0  0  0
    2.0046   -4.9721    0.0000 C   0  0  0  0  0  0  0  0  0  0  0  0
    1.8478   -6.4639    0.0000 C   0  0  0  0  0  0  0  0  0  0  0  0
    1.6910   -7.9557    0.0000 N   0  0  0  0  0  0  0  0  0  0  0  0
    3.3037   -4.2221    0.0000 C   0  0  0  0  0  0  0  0  0  0  0  0
    2.9918   -2.7549    0.0000 C   0  0  0  0  0  0  0  0  0  0  0  0
    1.5000   -2.5981    0.0000 C   0  0  0  0  0  0  0  0  0  0  0  0
    0.7500   -1.2990    0.0000 C   0  0  0  0  0  0  0  0  0  0  0  0
    1.5000    0.0000    0.0000 C   0  0  0  0  0  0  0  0  0  0  0  0
    0.7500    1.2990    0.0000 C   0  0  0  0  0  0  0  0  0  0  0  0
   -0.7500    1.2990    0.0000 C   0  0  0  0  0  0  0  0  0  0  0  0
   -1.5000    2.5981    0.0000 O   0  0  0  0  0  0  0  0  0  0  0  0
   -1.5000    0.0000    0.0000 C   0  0  0  0  0  0  0  0  0  0  0  0
   -0.7500   -1.2990    0.0000 C   0  0  0  0  0  0  0  0  0  0  0  0
  1  2  1  0
  2  3  1  0
  3  4  1  0
  4  5  3  0
  3  6  2  0
  6  7  1  0
  7  8  2  0
  8  9  1  0
  9 10  2  0
 10 11  1  0
 11 12  2  0
 12 13  1  0
 12 14  1  0
 14 15  2  0
  8  2  1  0
 15  9  1  0
M  END
>  <assay_chembl_id>  (655) 
CHEMBL4040321

>  <assay_description>  (655) 
Displacement of [3H]mibolerone from human androgen receptor expressed in African green monkey COS cells after 3.5 hrs by scintillation and luminescene counting

>  <parent_molecule_chembl_id>  (655) 
CHEMBL4087256

>  <canonical_smiles>  (655) 
Cn1c(C#N)ccc1-c1ccc(O)cc1

>  <standard_type>  (655) 
IC50

>  <standard_relation>  (655) 
=

>  <standard_value>  (655) 
6.3

>  <standard_units>  (655) 
nM

>  <target_pref_name>  (655) 
Androgen Receptor

>  <target_chembl_id>  (655) 
CHEMBL1871

>  <target_organism>  (655) 
Homo sapiens

>  <pchembl_median>  (655) 
5.87

$$$$
CHEMBL4061510
     RDKit          2D

 18 20  0  0  0  0  0  0  0  0999 V2000
    3.3463    0.7626    0.0000 C   0  0  0  0  0  0  0  0  0  0  0  0
    3.3463    2.2626    0.0000 N   0  0  0  0  0  0  0  0  0  0  0  0
    4.5598    3.1443    0.0000 C   0  0  0  0  0  0  0  0  0  0  0  0
    5.9864    2.6807    0.0000 C   0  0  0  0  0  0  0  0  0  0  0  0
    7.4130    2.2172    0.0000 N   0  0  0  0  0  0  0  0  0  0  0  0
    4.0963    4.5709    0.0000 C   0  0  0  0  0  0  0  0  0  0  0  0
    2.5963    4.5709    0.0000 C   0  0  0  0  0  0  0  0  0  0  0  0
    2.1328    3.1443    0.0000 C   0  0  0  0  0  0  0  0  0  0  0  0
    0.7062    2.6807    0.0000 C   0  0  0  0  0  0  0  0  0  0  0  0
   -0.4086    3.6844    0.0000 C   0  0  0  0  0  0  0  0  0  0  0  0
   -1.8351    3.2209    0.0000 C   0  0  0  0  0  0  0  0  0  0  0  0
   -2.1470    1.7537    0.0000 C   0  0  0  0  0  0  0  0  0  0  0  0
   -3.5736    1.2902    0.0000 O   0  0  0  0  0  0  0  0  0  0  0  0
   -1.0323    0.7500    0.0000 C   0  0  0  0  0  0  0  0  0  0  0  0
    0.3943    1.2135    0.0000 C   0  0  0  0  0  0  0  0  0  0  0  0
    1.2760    0.0000    0.0000 C   0  0  0  0  0  0  0  0  0  0  0  0
    0.3943   -1.2135    0.0000 C   0  0  0  0  0  0  0  0  0  0  0  0
   -1.0323   -0.7500    0.0000 C   0  0  0  0  0  0  0  0  0  0  0  0
  1  2  1  0
  2  3  1  0
  3  4  1  0
  4  5  3  0
  3  6  2  0
  6  7  1  0
  7  8  2  0
  8  9  1  0
  9 10  2  0
 10 11  1  0
 11 12  2  0
 12 13  1  0
 12 14  1  0
 14 15  2  0
 15 16  1  0
 16 17  1  0
 17 18  1  0
  8  2  1  0
 15  9  1  0
 18 14  1  0
M  END
>  <assay_chembl_id>  (656) 
CHEMBL4040321

>  <assay_description>  (656) 
Displacement of [3H]mibolerone from human androgen receptor expressed in African green monkey COS cells after 3.5 hrs by scintillation and luminescene counting

>  <parent_molecule_chembl_id>  (656) 
CHEMBL4061510

>  <canonical_smiles>  (656) 
Cn1c(C#N)ccc1-c1ccc(O)c2c1CCC2

>  <standard_type>  (656) 
IC50

>  <standard_relation>  (656) 
=

>  <standard_value>  (656) 
8.1

>  <standard_units>  (656) 
nM

>  <target_pref_name>  (656) 
Androgen Receptor

>  <target_chembl_id>  (656) 
CHEMBL1871

>  <target_organism>  (656) 
Homo sapiens

>  <pchembl_median>  (656) 
5.76

$$$$
CHEMBL4074555
     RDKit          2D

 17 18  0  0  0  0  0  0  0  0999 V2000
   -0.5773   -4.2803    0.0000 C   0  0  0  0  0  0  0  0  0  0  0  0
    0.8899   -3.9684    0.0000 N   0  0  0  0  0  0  0  0  0  0  0  0
    2.0046   -4.9721    0.0000 C   0  0  0  0  0  0  0  0  0  0  0  0
    1.8478   -6.4639    0.0000 C   0  0  0  0  0  0  0  0  0  0  0  0
    1.6910   -7.9557    0.0000 N   0  0  0  0  0  0  0  0  0  0  0  0
    3.3037   -4.2221    0.0000 C   0  0  0  0  0  0  0  0  0  0  0  0
    2.9918   -2.7549    0.0000 C   0  0  0  0  0  0  0  0  0  0  0  0
    1.5000   -2.5981    0.0000 C   0  0  0  0  0  0  0  0  0  0  0  0
    0.7500   -1.2990    0.0000 C   0  0  0  0  0  0  0  0  0  0  0  0
    1.5000    0.0000    0.0000 C   0  0  0  0  0  0  0  0  0  0  0  0
    3.0000    0.0000    0.0000 Cl  0  0  0  0  0  0  0  0  0  0  0  0
    0.7500    1.2990    0.0000 C   0  0  0  0  0  0  0  0  0  0  0  0
   -0.7500    1.2990    0.0000 C   0  0  0  0  0  0  0  0  0  0  0  0
   -1.5000    2.5981    0.0000 O   0  0  0  0  0  0  0  0  0  0  0  0
   -1.5000    0.0000    0.0000 C   0  0  0  0  0  0  0  0  0  0  0  0
   -0.7500   -1.2990    0.0000 C   0  0  0  0  0  0  0  0  0  0  0  0
   -1.5000   -2.5981    0.0000 Cl  0  0  0  0  0  0  0  0  0  0  0  0
  1  2  1  0
  2  3  1  0
  3  4  1  0
  4  5  3  0
  3  6  2  0
  6  7  1  0
  7  8  2  0
  8  9  1  0
  9 10  2  0
 10 11  1  0
 10 12  1  0
 12 13  2  0
 13 14  1  0
 13 15  1  0
 15 16  2  0
 16 17  1  0
  8  2  1  0
 16  9  1  0
M  END
>  <assay_chembl_id>  (657) 
CHEMBL4040321

>  <assay_description>  (657) 
Displacement of [3H]mibolerone from human androgen receptor expressed in African green monkey COS cells after 3.5 hrs by scintillation and luminescene counting

>  <parent_molecule_chembl_id>  (657) 
CHEMBL4074555

>  <canonical_smiles>  (657) 
Cn1c(C#N)ccc1-c1c(Cl)cc(O)cc1Cl

>  <standard_type>  (657) 
IC50

>  <standard_relation>  (657) 
=

>  <standard_value>  (657) 
28.7

>  <standard_units>  (657) 
nM

>  <target_pref_name>  (657) 
Androgen Receptor

>  <target_chembl_id>  (657) 
CHEMBL1871

>  <target_organism>  (657) 
Homo sapiens

>  <pchembl_median>  (657) 
7.8

$$$$
CHEMBL4072730
     RDKit          2D

 17 18  0  0  0  0  0  0  0  0999 V2000
    3.0000    0.0000    0.0000 C   0  0  0  0  0  0  0  0  0  0  0  0
    1.5000    0.0000    0.0000 C   0  0  0  0  0  0  0  0  0  0  0  0
    0.7500   -1.2990    0.0000 C   0  0  0  0  0  0  0  0  0  0  0  0
    1.5000   -2.5981    0.0000 O   0  0  0  0  0  0  0  0  0  0  0  0
   -0.7500   -1.2990    0.0000 C   0  0  0  0  0  0  0  0  0  0  0  0
   -1.5000    0.0000    0.0000 C   0  0  0  0  0  0  0  0  0  0  0  0
   -0.7500    1.2990    0.0000 C   0  0  0  0  0  0  0  0  0  0  0  0
   -1.5000    2.5981    0.0000 C   0  0  0  0  0  0  0  0  0  0  0  0
   -2.9918    2.7549    0.0000 C   0  0  0  0  0  0  0  0  0  0  0  0
   -3.3037    4.2221    0.0000 C   0  0  0  0  0  0  0  0  0  0  0  0
   -2.0046    4.9721    0.0000 C   0  0  0  0  0  0  0  0  0  0  0  0
   -1.8478    6.4639    0.0000 C   0  0  0  0  0  0  0  0  0  0  0  0
   -1.6910    7.9557    0.0000 N   0  0  0  0  0  0  0  0  0  0  0  0
   -0.8899    3.9684    0.0000 N   0  0  0  0  0  0  0  0  0  0  0  0
    0.5773    4.2803    0.0000 C   0  0  0  0  0  0  0  0  0  0  0  0
    0.7500    1.2990    0.0000 C   0  0  0  0  0  0  0  0  0  0  0  0
    1.5000    2.5981    0.0000 C   0  0  0  0  0  0  0  0  0  0  0  0
  1  2  1  0
  2  3  2  0
  3  4  1  0
  3  5  1  0
  5  6  2  0
  6  7  1  0
  7  8  1  0
  8  9  2  0
  9 10  1  0
 10 11  2  0
 11 12  1  0
 12 13  3  0
 11 14  1  0
 14 15  1  0
  7 16  2  0
 16 17  1  0
 16  2  1  0
 14  8  1  0
M  END
>  <assay_chembl_id>  (658) 
CHEMBL4040321

>  <assay_description>  (658) 
Displacement of [3H]mibolerone from human androgen receptor expressed in African green monkey COS cells after 3.5 hrs by scintillation and luminescene counting

>  <parent_molecule_chembl_id>  (658) 
CHEMBL4072730

>  <canonical_smiles>  (658) 
Cc1c(O)ccc(-c2ccc(C#N)n2C)c1C

>  <standard_type>  (658) 
IC50

>  <standard_relation>  (658) 
=

>  <standard_value>  (658) 
4.9

>  <standard_units>  (658) 
nM

>  <target_pref_name>  (658) 
Androgen Receptor

>  <target_chembl_id>  (658) 
CHEMBL1871

>  <target_organism>  (658) 
Homo sapiens

>  <pchembl_median>  (658) 
6.695

$$$$
CHEMBL4073869
     RDKit          2D

 16 17  0  0  0  0  0  0  0  0999 V2000
   -0.5773   -4.2803    0.0000 C   0  0  0  0  0  0  0  0  0  0  0  0
    0.8899   -3.9684    0.0000 N   0  0  0  0  0  0  0  0  0  0  0  0
    2.0046   -4.9721    0.0000 C   0  0  0  0  0  0  0  0  0  0  0  0
    1.8478   -6.4639    0.0000 C   0  0  0  0  0  0  0  0  0  0  0  0
    1.6910   -7.9557    0.0000 N   0  0  0  0  0  0  0  0  0  0  0  0
    3.3037   -4.2221    0.0000 C   0  0  0  0  0  0  0  0  0  0  0  0
    2.9918   -2.7549    0.0000 C   0  0  0  0  0  0  0  0  0  0  0  0
    3.9955   -1.6402    0.0000 Br  0  0  0  0  0  0  0  0  0  0  0  0
    1.5000   -2.5981    0.0000 C   0  0  0  0  0  0  0  0  0  0  0  0
    0.7500   -1.2990    0.0000 C   0  0  0  0  0  0  0  0  0  0  0  0
    1.5000    0.0000    0.0000 C   0  0  0  0  0  0  0  0  0  0  0  0
    0.7500    1.2990    0.0000 C   0  0  0  0  0  0  0  0  0  0  0  0
   -0.7500    1.2990    0.0000 C   0  0  0  0  0  0  0  0  0  0  0  0
   -1.5000    2.5981    0.0000 O   0  0  0  0  0  0  0  0  0  0  0  0
   -1.5000    0.0000    0.0000 C   0  0  0  0  0  0  0  0  0  0  0  0
   -0.7500   -1.2990    0.0000 C   0  0  0  0  0  0  0  0  0  0  0  0
  1  2  1  0
  2  3  1  0
  3  4  1  0
  4  5  3  0
  3  6  2  0
  6  7  1  0
  7  8  1  0
  7  9  2  0
  9 10  1  0
 10 11  2  0
 11 12  1  0
 12 13  2  0
 13 14  1  0
 13 15  1  0
 15 16  2  0
  9  2  1  0
 16 10  1  0
M  END
>  <assay_chembl_id>  (659) 
CHEMBL4040321

>  <assay_description>  (659) 
Displacement of [3H]mibolerone from human androgen receptor expressed in African green monkey COS cells after 3.5 hrs by scintillation and luminescene counting

>  <parent_molecule_chembl_id>  (659) 
CHEMBL4073869

>  <canonical_smiles>  (659) 
Cn1c(C#N)cc(Br)c1-c1ccc(O)cc1

>  <standard_type>  (659) 
IC50

>  <standard_relation>  (659) 
=

>  <standard_value>  (659) 
166.9

>  <standard_units>  (659) 
nM

>  <target_pref_name>  (659) 
Androgen Receptor

>  <target_chembl_id>  (659) 
CHEMBL1871

>  <target_organism>  (659) 
Homo sapiens

>  <pchembl_median>  (659) 
5.48

$$$$
CHEMBL4088572
     RDKit          2D

 19 20  0  0  0  0  0  0  0  0999 V2000
    3.9955   -1.6402    0.0000 C   0  0  0  0  0  0  0  0  0  0  0  0
    2.9918   -2.7549    0.0000 N   0  0  0  0  0  0  0  0  0  0  0  0
    1.5000   -2.5981    0.0000 C   0  0  0  0  0  0  0  0  0  0  0  0
    0.7500   -1.2990    0.0000 C   0  0  0  0  0  0  0  0  0  0  0  0
    1.5000    0.0000    0.0000 C   0  0  0  0  0  0  0  0  0  0  0  0
    0.7500    1.2990    0.0000 C   0  0  0  0  0  0  0  0  0  0  0  0
   -0.7500    1.2990    0.0000 C   0  0  0  0  0  0  0  0  0  0  0  0
   -1.5000    2.5981    0.0000 O   0  0  0  0  0  0  0  0  0  0  0  0
   -1.5000    0.0000    0.0000 C   0  0  0  0  0  0  0  0  0  0  0  0
   -0.7500   -1.2990    0.0000 C   0  0  0  0  0  0  0  0  0  0  0  0
    0.8899   -3.9684    0.0000 C   0  0  0  0  0  0  0  0  0  0  0  0
    2.0046   -4.9721    0.0000 C   0  0  0  0  0  0  0  0  0  0  0  0
    1.8478   -6.4639    0.0000 C   0  0  0  0  0  0  0  0  0  0  0  0
    1.6910   -7.9557    0.0000 F   0  0  0  0  0  0  0  0  0  0  0  0
    0.3560   -6.3071    0.0000 F   0  0  0  0  0  0  0  0  0  0  0  0
    3.3396   -6.6207    0.0000 F   0  0  0  0  0  0  0  0  0  0  0  0
    3.3037   -4.2221    0.0000 C   0  0  0  0  0  0  0  0  0  0  0  0
    4.6740   -4.8322    0.0000 C   0  0  0  0  0  0  0  0  0  0  0  0
    6.0443   -5.4423    0.0000 N   0  0  0  0  0  0  0  0  0  0  0  0
  1  2  1  0
  2  3  1  0
  3  4  1  0
  4  5  2  0
  5  6  1  0
  6  7  2  0
  7  8  1  0
  7  9  1  0
  9 10  2  0
  3 11  2  0
 11 12  1  0
 12 13  1  0
 13 14  1  0
 13 15  1  0
 13 16  1  0
 12 17  2  0
 17 18  1  0
 18 19  3  0
 17  2  1  0
 10  4  1  0
M  END
>  <assay_chembl_id>  (660) 
CHEMBL4040321

>  <assay_description>  (660) 
Displacement of [3H]mibolerone from human androgen receptor expressed in African green monkey COS cells after 3.5 hrs by scintillation and luminescene counting

>  <parent_molecule_chembl_id>  (660) 
CHEMBL4088572

>  <canonical_smiles>  (660) 
Cn1c(-c2ccc(O)cc2)cc(C(F)(F)F)c1C#N

>  <standard_type>  (660) 
IC50

>  <standard_relation>  (660) 
=

>  <standard_value>  (660) 
11.1

>  <standard_units>  (660) 
nM

>  <target_pref_name>  (660) 
Androgen Receptor

>  <target_chembl_id>  (660) 
CHEMBL1871

>  <target_organism>  (660) 
Homo sapiens

>  <pchembl_median>  (660) 
5.48

$$$$
CHEMBL4060340
     RDKit          2D

 17 18  0  0  0  0  0  0  0  0999 V2000
   -1.0409   -5.7068    0.0000 C   0  0  0  0  0  0  0  0  0  0  0  0
   -0.5773   -4.2803    0.0000 C   0  0  0  0  0  0  0  0  0  0  0  0
    0.8899   -3.9684    0.0000 N   0  0  0  0  0  0  0  0  0  0  0  0
    2.0046   -4.9721    0.0000 C   0  0  0  0  0  0  0  0  0  0  0  0
    1.8478   -6.4639    0.0000 C   0  0  0  0  0  0  0  0  0  0  0  0
    1.6910   -7.9557    0.0000 N   0  0  0  0  0  0  0  0  0  0  0  0
    3.3037   -4.2221    0.0000 C   0  0  0  0  0  0  0  0  0  0  0  0
    2.9918   -2.7549    0.0000 C   0  0  0  0  0  0  0  0  0  0  0  0
    1.5000   -2.5981    0.0000 C   0  0  0  0  0  0  0  0  0  0  0  0
    0.7500   -1.2990    0.0000 C   0  0  0  0  0  0  0  0  0  0  0  0
    1.5000    0.0000    0.0000 C   0  0  0  0  0  0  0  0  0  0  0  0
    0.7500    1.2990    0.0000 C   0  0  0  0  0  0  0  0  0  0  0  0
   -0.7500    1.2990    0.0000 C   0  0  0  0  0  0  0  0  0  0  0  0
   -1.5000    2.5981    0.0000 O   0  0  0  0  0  0  0  0  0  0  0  0
   -1.5000    0.0000    0.0000 C   0  0  0  0  0  0  0  0  0  0  0  0
   -0.7500   -1.2990    0.0000 C   0  0  0  0  0  0  0  0  0  0  0  0
   -1.5000   -2.5981    0.0000 F   0  0  0  0  0  0  0  0  0  0  0  0
  1  2  1  0
  2  3  1  0
  3  4  1  0
  4  5  1  0
  5  6  3  0
  4  7  2  0
  7  8  1  0
  8  9  2  0
  9 10  1  0
 10 11  2  0
 11 12  1  0
 12 13  2  0
 13 14  1  0
 13 15  1  0
 15 16  2  0
 16 17  1  0
  9  3  1  0
 16 10  1  0
M  END
>  <assay_chembl_id>  (661) 
CHEMBL4040321

>  <assay_description>  (661) 
Displacement of [3H]mibolerone from human androgen receptor expressed in African green monkey COS cells after 3.5 hrs by scintillation and luminescene counting

>  <parent_molecule_chembl_id>  (661) 
CHEMBL4060340

>  <canonical_smiles>  (661) 
CCn1c(C#N)ccc1-c1ccc(O)cc1F

>  <standard_type>  (661) 
IC50

>  <standard_relation>  (661) 
=

>  <standard_value>  (661) 
127.1

>  <standard_units>  (661) 
nM

>  <target_pref_name>  (661) 
Androgen Receptor

>  <target_chembl_id>  (661) 
CHEMBL1871

>  <target_organism>  (661) 
Homo sapiens

>  <pchembl_median>  (661) 
5.44

$$$$
CHEMBL4080698
     RDKit          2D

 18 19  0  0  0  0  0  0  0  0999 V2000
   -1.5044   -7.1334    0.0000 N   0  0  0  0  0  0  0  0  0  0  0  0
   -1.0409   -5.7068    0.0000 C   0  0  0  0  0  0  0  0  0  0  0  0
   -0.5773   -4.2803    0.0000 C   0  0  0  0  0  0  0  0  0  0  0  0
    0.8899   -3.9684    0.0000 N   0  0  0  0  0  0  0  0  0  0  0  0
    2.0046   -4.9721    0.0000 C   0  0  0  0  0  0  0  0  0  0  0  0
    1.8478   -6.4639    0.0000 C   0  0  0  0  0  0  0  0  0  0  0  0
    1.6910   -7.9557    0.0000 N   0  0  0  0  0  0  0  0  0  0  0  0
    3.3037   -4.2221    0.0000 C   0  0  0  0  0  0  0  0  0  0  0  0
    2.9918   -2.7549    0.0000 C   0  0  0  0  0  0  0  0  0  0  0  0
    1.5000   -2.5981    0.0000 C   0  0  0  0  0  0  0  0  0  0  0  0
    0.7500   -1.2990    0.0000 C   0  0  0  0  0  0  0  0  0  0  0  0
    1.5000    0.0000    0.0000 C   0  0  0  0  0  0  0  0  0  0  0  0
    0.7500    1.2990    0.0000 C   0  0  0  0  0  0  0  0  0  0  0  0
   -0.7500    1.2990    0.0000 C   0  0  0  0  0  0  0  0  0  0  0  0
   -1.5000    2.5981    0.0000 O   0  0  0  0  0  0  0  0  0  0  0  0
   -1.5000    0.0000    0.0000 C   0  0  0  0  0  0  0  0  0  0  0  0
   -0.7500   -1.2990    0.0000 C   0  0  0  0  0  0  0  0  0  0  0  0
   -1.5000   -2.5981    0.0000 F   0  0  0  0  0  0  0  0  0  0  0  0
  1  2  3  0
  2  3  1  0
  3  4  1  0
  4  5  1  0
  5  6  1  0
  6  7  3  0
  5  8  2  0
  8  9  1  0
  9 10  2  0
 10 11  1  0
 11 12  2  0
 12 13  1  0
 13 14  2  0
 14 15  1  0
 14 16  1  0
 16 17  2  0
 17 18  1  0
 10  4  1  0
 17 11  1  0
M  END
>  <assay_chembl_id>  (662) 
CHEMBL4040321

>  <assay_description>  (662) 
Displacement of [3H]mibolerone from human androgen receptor expressed in African green monkey COS cells after 3.5 hrs by scintillation and luminescene counting

>  <parent_molecule_chembl_id>  (662) 
CHEMBL4080698

>  <canonical_smiles>  (662) 
N#CCn1c(C#N)ccc1-c1ccc(O)cc1F

>  <standard_type>  (662) 
IC50

>  <standard_relation>  (662) 
=

>  <standard_value>  (662) 
6032.0

>  <standard_units>  (662) 
nM

>  <target_pref_name>  (662) 
Androgen Receptor

>  <target_chembl_id>  (662) 
CHEMBL1871

>  <target_organism>  (662) 
Homo sapiens

>  <pchembl_median>  (662) 
5.09

$$$$
CHEMBL4064645
     RDKit          2D

 29 33  0  0  0  0  0  0  0  0999 V2000
   -4.4918   -5.3529    0.0000 C   0  0  0  0  0  0  0  0  0  0  0  0
   -3.0000   -5.1962    0.0000 C   0  0  0  0  0  0  0  0  0  0  0  0
   -3.7500   -3.8971    0.0000 C   0  0  0  0  0  0  0  0  0  0  0  0
   -3.0000   -2.5981    0.0000 C   0  0  0  0  0  0  0  0  0  0  0  0
   -1.5000   -2.5981    0.0000 C   0  0  0  0  0  0  0  0  0  0  0  0
   -0.7500   -3.8971    0.0000 C   0  0  0  0  0  0  0  0  0  0  0  0
    0.7500   -3.8971    0.0000 C   0  0  0  0  0  0  0  0  0  0  0  0
    1.5000   -2.5981    0.0000 C   0  0  0  0  0  0  0  0  0  0  0  0
    0.7500   -1.2990    0.0000 C   0  0  0  0  0  0  0  0  0  0  0  0
    1.5000    0.0000    0.0000 N   0  0  0  0  0  0  0  0  0  0  0  0
    0.7500    1.2990    0.0000 C   0  0  0  0  0  0  0  0  0  0  0  0
    1.5000    2.5981    0.0000 O   0  0  0  0  0  0  0  0  0  0  0  0
   -0.7500    1.2990    0.0000 C   0  0  0  0  0  0  0  0  0  0  0  0
   -1.5000    0.0000    0.0000 C   0  0  0  0  0  0  0  0  0  0  0  0
   -0.7500   -1.2990    0.0000 C   0  0  0  0  0  0  0  0  0  0  0  0
   -2.2500   -1.2990    0.0000 C   0  0  0  0  0  0  0  0  0  0  0  0
   -1.5000   -5.1962    0.0000 C   0  0  0  0  0  0  0  0  0  0  0  0
   -1.0365   -6.6227    0.0000 C   0  0  0  0  0  0  0  0  0  0  0  0
   -2.2500   -7.5044    0.0000 C   0  0  0  0  0  0  0  0  0  0  0  0
   -3.4635   -6.6227    0.0000 C   0  0  0  0  0  0  0  0  0  0  0  0
   -4.8901   -7.0863    0.0000 C   0  0  0  0  0  0  0  0  0  0  0  0
   -6.0048   -6.0826    0.0000 O   0  0  0  0  0  0  0  0  0  0  0  0
   -5.2020   -8.5535    0.0000 N   0  0  0  0  0  0  0  0  0  0  0  0
   -6.6286   -9.0170    0.0000 C   0  0  0  0  0  0  0  0  0  0  0  0
   -7.7433   -8.0133    0.0000 C   0  0  0  0  0  0  0  0  0  0  0  0
   -9.1699   -8.4768    0.0000 C   0  0  0  0  0  0  0  0  0  0  0  0
   -9.4817   -9.9441    0.0000 C   0  0  0  0  0  0  0  0  0  0  0  0
   -8.3670  -10.9478    0.0000 C   0  0  0  0  0  0  0  0  0  0  0  0
   -6.9404  -10.4842    0.0000 C   0  0  0  0  0  0  0  0  0  0  0  0
  2  1  1  6
  2  3  1  0
  3  4  1  0
  5  4  1  6
  5  6  1  0
  6  7  1  1
  7  8  1  0
  9  8  1  6
  9 10  1  0
 10 11  1  0
 11 12  2  0
 11 13  1  0
 13 14  1  0
 14 15  1  0
 15 16  1  6
  6 17  1  0
 17 18  1  6
 18 19  1  0
 19 20  1  0
 20 21  1  6
 21 22  2  0
 21 23  1  0
 23 24  1  0
 24 25  2  0
 25 26  1  0
 26 27  2  0
 27 28  1  0
 28 29  2  0
 17  2  1  0
 29 24  1  0
 20  2  1  0
 15  5  1  0
 15  9  1  0
M  END
>  <assay_chembl_id>  (663) 
CHEMBL4058444

>  <assay_description>  (663) 
Displacement of [3H]-DHT from recombinant human androgen receptor expressed in CHO cells

>  <parent_molecule_chembl_id>  (663) 
CHEMBL4064645

>  <canonical_smiles>  (663) 
C[C@]12CC[C@H]3[C@@H](CC[C@H]4NC(=O)CC[C@]34C)[C@@H]1CC[C@@H]2C(=O)Nc1ccccc1

>  <standard_type>  (663) 
IC50

>  <standard_relation>  (663) 
=

>  <standard_value>  (663) 
23000.0

>  <standard_units>  (663) 
nM

>  <target_pref_name>  (663) 
Androgen Receptor

>  <target_chembl_id>  (663) 
CHEMBL1871

>  <target_organism>  (663) 
Homo sapiens

>  <pchembl_median>  (663) 
5.24

$$$$
CHEMBL4090771
     RDKit          2D

 26 29  0  0  0  0  0  0  0  0999 V2000
   -6.3719  -11.1015    0.0000 N   0  0  0  0  0  0  0  0  0  0  0  0
   -5.4902   -9.8880    0.0000 C   0  0  0  0  0  0  0  0  0  0  0  0
   -4.6086   -8.6745    0.0000 C   0  0  0  0  0  0  0  0  0  0  0  0
   -5.2187   -7.3041    0.0000 C   0  0  0  0  0  0  0  0  0  0  0  0
   -4.3370   -6.0906    0.0000 C   0  0  0  0  0  0  0  0  0  0  0  0
   -2.8452   -6.2474    0.0000 C   0  0  0  0  0  0  0  0  0  0  0  0
   -1.9635   -5.0339    0.0000 N   0  0  0  0  0  0  0  0  0  0  0  0
   -0.4635   -5.0339    0.0000 C   0  0  0  0  0  0  0  0  0  0  0  0
    0.4182   -6.2474    0.0000 O   0  0  0  0  0  0  0  0  0  0  0  0
   -0.0000   -3.6073    0.0000 C   0  0  0  0  0  0  0  0  0  0  0  0
    1.2135   -2.7256    0.0000 C   0  0  0  0  0  0  0  0  0  0  0  0
    0.7500   -1.2990    0.0000 C   0  0  0  0  0  0  0  0  0  0  0  0
    1.5000    0.0000    0.0000 C   0  0  0  0  0  0  0  0  0  0  0  0
    0.7500    1.2990    0.0000 C   0  0  0  0  0  0  0  0  0  0  0  0
   -0.7500    1.2990    0.0000 C   0  0  0  0  0  0  0  0  0  0  0  0
   -1.5000    0.0000    0.0000 C   0  0  0  0  0  0  0  0  0  0  0  0
   -0.7500   -1.2990    0.0000 C   0  0  0  0  0  0  0  0  0  0  0  0
   -1.2135   -2.7256    0.0000 N   0  0  0  0  0  0  0  0  0  0  0  0
   -2.4271   -3.6073    0.0000 C   0  0  0  0  0  0  0  0  0  0  0  0
   -3.8536   -3.1438    0.0000 S   0  0  0  0  0  0  0  0  0  0  0  0
   -2.2351   -7.6177    0.0000 C   0  0  0  0  0  0  0  0  0  0  0  0
   -3.1168   -8.8313    0.0000 C   0  0  0  0  0  0  0  0  0  0  0  0
   -2.5067  -10.2016    0.0000 C   0  0  0  0  0  0  0  0  0  0  0  0
   -1.8966  -11.5719    0.0000 F   0  0  0  0  0  0  0  0  0  0  0  0
   -1.1364   -9.5915    0.0000 F   0  0  0  0  0  0  0  0  0  0  0  0
   -3.8770  -10.8117    0.0000 F   0  0  0  0  0  0  0  0  0  0  0  0
  1  2  3  0
  2  3  1  0
  3  4  2  0
  4  5  1  0
  5  6  2  0
  6  7  1  0
  7  8  1  0
  8  9  2  0
  8 10  1  0
 10 11  1  0
 11 12  1  0
 12 13  2  0
 13 14  1  0
 14 15  2  0
 15 16  1  0
 16 17  2  0
 17 18  1  0
 18 19  1  0
 19 20  2  0
  6 21  1  0
 21 22  2  0
 22 23  1  0
 23 24  1  0
 23 25  1  0
 23 26  1  0
 22  3  1  0
 19  7  1  0
 18 10  1  0
 17 12  1  0
M  END
>  <assay_chembl_id>  (664) 
CHEMBL4141638

>  <assay_description>  (664) 
Antagonist activity at androgen receptor (unknown origin) expressed in African green monkey COS7 cells assessed as inhibition of R1881-induced protein activation after 24 hrs by luciferase reporter gene assay

>  <parent_molecule_chembl_id>  (664) 
CHEMBL4090771

>  <canonical_smiles>  (664) 
N#Cc1ccc(N2C(=O)C3Cc4ccccc4N3C2=S)cc1C(F)(F)F

>  <standard_type>  (664) 
IC50

>  <standard_relation>  (664) 
=

>  <standard_value>  (664) 
18750.0

>  <standard_units>  (664) 
nM

>  <target_pref_name>  (664) 
Androgen Receptor

>  <target_chembl_id>  (664) 
CHEMBL1871

>  <target_organism>  (664) 
Homo sapiens

>  <pchembl_median>  (664) 
5.945

$$$$
CHEMBL4161910
     RDKit          2D

 34 37  0  0  0  0  0  0  0  0999 V2000
    7.5000   -2.5981    0.0000 C   0  0  0  0  0  0  0  0  0  0  0  0
    6.0000   -2.5981    0.0000 C   0  0  0  0  0  0  0  0  0  0  0  0
    5.2500   -1.2990    0.0000 O   0  0  0  0  0  0  0  0  0  0  0  0
    3.7500   -1.2990    0.0000 C   0  0  0  0  0  0  0  0  0  0  0  0
    3.0000   -2.5981    0.0000 O   0  0  0  0  0  0  0  0  0  0  0  0
    3.0000    0.0000    0.0000 N   0  0  0  0  0  0  0  0  0  0  0  0
    1.5000    0.0000    0.0000 C   0  0  0  0  0  0  0  0  0  0  0  0
    0.7500   -1.2990    0.0000 C   0  0  0  0  0  0  0  0  0  0  0  0
   -0.7500   -1.2990    0.0000 C   0  0  0  0  0  0  0  0  0  0  0  0
   -1.5000    0.0000    0.0000 C   0  0  0  0  0  0  0  0  0  0  0  0
   -0.7500    1.2990    0.0000 C   0  0  0  0  0  0  0  0  0  0  0  0
    0.7500    1.2990    0.0000 C   0  0  0  0  0  0  0  0  0  0  0  0
    1.5000    2.5981    0.0000 F   0  0  0  0  0  0  0  0  0  0  0  0
   -3.0000    0.0000    0.0000 C   0  0  0  0  0  0  0  0  0  0  0  0
   -3.7500   -1.2990    0.0000 C   0  0  0  0  0  0  0  0  0  0  0  0
   -5.2172   -1.6109    0.0000 C   0  0  0  0  0  0  0  0  0  0  0  0
   -6.3319   -0.6072    0.0000 O   0  0  0  0  0  0  0  0  0  0  0  0
   -5.3740   -3.1027    0.0000 N   0  0  0  0  0  0  0  0  0  0  0  0
   -6.6731   -3.8527    0.0000 C   0  0  0  0  0  0  0  0  0  0  0  0
   -7.9721   -3.1027    0.0000 C   0  0  0  0  0  0  0  0  0  0  0  0
   -9.2711   -3.8527    0.0000 C   0  0  0  0  0  0  0  0  0  0  0  0
   -9.2711   -5.3527    0.0000 C   0  0  0  0  0  0  0  0  0  0  0  0
  -10.5702   -6.1027    0.0000 C   0  0  0  0  0  0  0  0  0  0  0  0
  -11.8692   -6.8527    0.0000 N   0  0  0  0  0  0  0  0  0  0  0  0
   -7.9721   -6.1027    0.0000 C   0  0  0  0  0  0  0  0  0  0  0  0
   -7.9721   -7.6027    0.0000 C   0  0  0  0  0  0  0  0  0  0  0  0
   -7.9721   -9.1027    0.0000 F   0  0  0  0  0  0  0  0  0  0  0  0
   -6.4721   -7.6027    0.0000 F   0  0  0  0  0  0  0  0  0  0  0  0
   -9.4721   -7.6027    0.0000 F   0  0  0  0  0  0  0  0  0  0  0  0
   -6.6731   -5.3527    0.0000 C   0  0  0  0  0  0  0  0  0  0  0  0
   -4.0037   -3.7128    0.0000 C   0  0  0  0  0  0  0  0  0  0  0  0
   -3.6918   -5.1800    0.0000 S   0  0  0  0  0  0  0  0  0  0  0  0
   -3.0000   -2.5981    0.0000 N   0  0  0  0  0  0  0  0  0  0  0  0
   -1.5000   -2.5981    0.0000 C   0  0  0  0  0  0  0  0  0  0  0  0
  1  2  1  0
  2  3  1  0
  3  4  1  0
  4  5  2  0
  4  6  1  0
  6  7  1  0
  7  8  2  0
  8  9  1  0
  9 10  2  0
 10 11  1  0
 11 12  2  0
 12 13  1  0
 10 14  1  0
 14 15  1  0
 15 16  1  0
 16 17  2  0
 16 18  1  0
 18 19  1  0
 19 20  2  0
 20 21  1  0
 21 22  2  0
 22 23  1  0
 23 24  3  0
 22 25  1  0
 25 26  1  0
 26 27  1  0
 26 28  1  0
 26 29  1  0
 25 30  2  0
 18 31  1  0
 31 32  2  0
 31 33  1  0
 33 34  1  0
 12  7  1  0
 33 15  1  0
 34  9  1  0
 30 19  1  0
M  END
>  <assay_chembl_id>  (665) 
CHEMBL4141638

>  <assay_description>  (665) 
Antagonist activity at androgen receptor (unknown origin) expressed in African green monkey COS7 cells assessed as inhibition of R1881-induced protein activation after 24 hrs by luciferase reporter gene assay

>  <parent_molecule_chembl_id>  (665) 
CHEMBL4161910

>  <canonical_smiles>  (665) 
CCOC(=O)Nc1cc2c(cc1F)CC1C(=O)N(c3ccc(C#N)c(C(F)(F)F)c3)C(=S)N1C2

>  <standard_type>  (665) 
IC50

>  <standard_relation>  (665) 
=

>  <standard_value>  (665) 
7390.0

>  <standard_units>  (665) 
nM

>  <target_pref_name>  (665) 
Androgen Receptor

>  <target_chembl_id>  (665) 
CHEMBL1871

>  <target_organism>  (665) 
Homo sapiens

>  <pchembl_median>  (665) 
5.62

$$$$
CHEMBL131
     RDKit          2D

 26 29  0  0  0  0  0  0  0  0999 V2000
   -4.4998   -5.1699    0.0000 C   0  0  0  0  0  0  0  0  0  0  0  0
   -3.0000   -5.1962    0.0000 C   0  0  0  0  0  0  0  0  0  0  0  0
   -3.7500   -3.8971    0.0000 C   0  0  0  0  0  0  0  0  0  0  0  0
   -3.0000   -2.5981    0.0000 C   0  0  0  0  0  0  0  0  0  0  0  0
   -3.7500   -1.2990    0.0000 O   0  0  0  0  0  0  0  0  0  0  0  0
   -1.5000   -2.5981    0.0000 C   0  0  0  0  0  0  0  0  0  0  0  0
   -0.7500   -3.8971    0.0000 C   0  0  0  0  0  0  0  0  0  0  0  0
    0.7500   -3.8971    0.0000 C   0  0  0  0  0  0  0  0  0  0  0  0
    1.5000   -2.5981    0.0000 C   0  0  0  0  0  0  0  0  0  0  0  0
    0.7500   -1.2990    0.0000 C   0  0  0  0  0  0  0  0  0  0  0  0
    1.5000    0.0000    0.0000 C   0  0  0  0  0  0  0  0  0  0  0  0
    0.7500    1.2990    0.0000 C   0  0  0  0  0  0  0  0  0  0  0  0
    1.5000    2.5981    0.0000 O   0  0  0  0  0  0  0  0  0  0  0  0
   -0.7500    1.2990    0.0000 C   0  0  0  0  0  0  0  0  0  0  0  0
   -1.5000    0.0000    0.0000 C   0  0  0  0  0  0  0  0  0  0  0  0
   -0.7500   -1.2990    0.0000 C   0  0  0  0  0  0  0  0  0  0  0  0
   -2.2500   -1.2990    0.0000 C   0  0  0  0  0  0  0  0  0  0  0  0
   -1.5000   -5.1962    0.0000 C   0  0  0  0  0  0  0  0  0  0  0  0
   -1.0365   -6.6227    0.0000 C   0  0  0  0  0  0  0  0  0  0  0  0
   -2.2500   -7.5044    0.0000 C   0  0  0  0  0  0  0  0  0  0  0  0
   -3.4635   -6.6227    0.0000 C   0  0  0  0  0  0  0  0  0  0  0  0
   -4.8980   -6.1842    0.0000 O   0  0  0  0  0  0  0  0  0  0  0  0
   -4.2135   -7.9218    0.0000 C   0  0  0  0  0  0  0  0  0  0  0  0
   -3.4635   -9.2208    0.0000 O   0  0  0  0  0  0  0  0  0  0  0  0
   -5.7135   -7.9218    0.0000 C   0  0  0  0  0  0  0  0  0  0  0  0
   -6.4635   -9.2208    0.0000 O   0  0  0  0  0  0  0  0  0  0  0  0
  2  1  1  6
  2  3  1  0
  3  4  1  0
  4  5  1  6
  6  4  1  6
  6  7  1  0
  7  8  1  1
  8  9  1  0
  9 10  1  0
 10 11  2  0
 11 12  1  0
 12 13  2  0
 12 14  1  0
 14 15  2  0
 15 16  1  0
 16 17  1  6
  7 18  1  0
 18 19  1  6
 19 20  1  0
 20 21  1  0
 21 22  1  1
 21 23  1  0
 23 24  2  0
 23 25  1  0
 25 26  1  0
 18  2  1  0
 21  2  1  0
 16  6  1  0
 16 10  1  0
M  END
>  <assay_chembl_id>  (666) 
CHEMBL4194583

>  <assay_description>  (666) 
Displacement of [3H]methyltrienolone from androgen receptor in human LNCaP cells after 1440 mins by scintillation counting method

>  <parent_molecule_chembl_id>  (666) 
CHEMBL131

>  <canonical_smiles>  (666) 
C[C@]12C[C@H](O)[C@H]3[C@@H](CCC4=CC(=O)C=C[C@@]43C)[C@@H]1CC[C@]2(O)C(=O)CO

>  <standard_type>  (666) 
IC50

>  <standard_relation>  (666) 
=

>  <standard_value>  (666) 
34000.0

>  <standard_units>  (666) 
nM

>  <target_pref_name>  (666) 
Androgen Receptor

>  <target_chembl_id>  (666) 
CHEMBL1871

>  <target_organism>  (666) 
Homo sapiens

>  <pchembl_median>  (666) 
6.61

$$$$
CHEMBL4225186
     RDKit          2D

 60 63  0  0  0  0  0  0  0  0999 V2000
    4.6740   -4.8322    0.0000 C   0  0  0  0  0  0  0  0  0  0  0  0
    3.3037   -4.2221    0.0000 C   0  0  0  0  0  0  0  0  0  0  0  0
    2.9918   -2.7549    0.0000 C   0  0  0  0  0  0  0  0  0  0  0  0
    3.9955   -1.6402    0.0000 C   0  0  0  0  0  0  0  0  0  0  0  0
    4.9992   -0.5254    0.0000 N   0  0  0  0  0  0  0  0  0  0  0  0
    1.5000   -2.5981    0.0000 C   0  0  0  0  0  0  0  0  0  0  0  0
    0.7500   -1.2990    0.0000 C   0  0  0  0  0  0  0  0  0  0  0  0
    1.5000    0.0000    0.0000 C   0  0  0  0  0  0  0  0  0  0  0  0
    0.7500    1.2990    0.0000 C   0  0  0  0  0  0  0  0  0  0  0  0
   -0.7500    1.2990    0.0000 C   0  0  0  0  0  0  0  0  0  0  0  0
   -1.5000    2.5981    0.0000 C   0  0  0  0  0  0  0  0  0  0  0  0
   -2.2500    3.8971    0.0000 N   0  0  0  0  0  0  0  0  0  0  0  0
   -1.5000    0.0000    0.0000 C   0  0  0  0  0  0  0  0  0  0  0  0
   -0.7500   -1.2990    0.0000 C   0  0  0  0  0  0  0  0  0  0  0  0
    0.8899   -3.9684    0.0000 C   0  0  0  0  0  0  0  0  0  0  0  0
   -0.5773   -4.2803    0.0000 C   0  0  0  0  0  0  0  0  0  0  0  0
    2.0046   -4.9721    0.0000 N   0  0  0  0  0  0  0  0  0  0  0  0
    1.8478   -6.4639    0.0000 C   0  0  0  0  0  0  0  0  0  0  0  0
    0.4775   -7.0740    0.0000 C   0  0  0  0  0  0  0  0  0  0  0  0
   -0.7360   -6.1923    0.0000 C   0  0  0  0  0  0  0  0  0  0  0  0
   -2.1063   -6.8024    0.0000 C   0  0  0  0  0  0  0  0  0  0  0  0
   -2.2631   -8.2942    0.0000 C   0  0  0  0  0  0  0  0  0  0  0  0
   -3.6335   -8.9043    0.0000 C   0  0  0  0  0  0  0  0  0  0  0  0
   -3.7902  -10.3961    0.0000 O   0  0  0  0  0  0  0  0  0  0  0  0
   -4.8470   -8.0226    0.0000 N   0  0  0  0  0  0  0  0  0  0  0  0
   -6.2173   -8.6327    0.0000 C   0  0  0  0  0  0  0  0  0  0  0  0
   -7.4308   -7.7510    0.0000 C   0  0  0  0  0  0  0  0  0  0  0  0
   -8.8011   -8.3611    0.0000 O   0  0  0  0  0  0  0  0  0  0  0  0
  -10.0147   -7.4795    0.0000 C   0  0  0  0  0  0  0  0  0  0  0  0
  -11.3850   -8.0896    0.0000 C   0  0  0  0  0  0  0  0  0  0  0  0
  -12.5985   -7.2079    0.0000 O   0  0  0  0  0  0  0  0  0  0  0  0
  -13.9688   -7.8180    0.0000 C   0  0  0  0  0  0  0  0  0  0  0  0
  -15.1824   -6.9363    0.0000 C   0  0  0  0  0  0  0  0  0  0  0  0
  -16.5527   -7.5464    0.0000 O   0  0  0  0  0  0  0  0  0  0  0  0
  -17.7662   -6.6648    0.0000 C   0  0  0  0  0  0  0  0  0  0  0  0
  -19.1365   -7.2749    0.0000 C   0  0  0  0  0  0  0  0  0  0  0  0
  -20.3500   -6.3932    0.0000 N   0  0  0  0  0  0  0  0  0  0  0  0
  -21.7204   -7.0033    0.0000 C   0  0  0  0  0  0  0  0  0  0  0  0
  -21.8772   -8.4951    0.0000 O   0  0  0  0  0  0  0  0  0  0  0  0
  -22.9339   -6.1216    0.0000 C   0  0  0  0  0  0  0  0  0  0  0  0
  -24.3042   -6.7317    0.0000 C   0  0  0  0  0  0  0  0  0  0  0  0
  -25.5177   -5.8500    0.0000 C   0  0  0  0  0  0  0  0  0  0  0  0
  -26.8880   -6.4601    0.0000 C   0  0  0  0  0  0  0  0  0  0  0  0
  -25.3609   -4.3582    0.0000 C   0  0  0  0  0  0  0  0  0  0  0  0
  -22.7771   -4.6298    0.0000 N   0  0  0  0  0  0  0  0  0  0  0  0
  -21.4068   -4.0197    0.0000 C   0  0  0  0  0  0  0  0  0  0  0  0
  -20.1932   -4.9014    0.0000 O   0  0  0  0  0  0  0  0  0  0  0  0
  -21.2500   -2.5279    0.0000 C   0  0  0  0  0  0  0  0  0  0  0  0
  -22.4635   -1.6463    0.0000 O   0  0  0  0  0  0  0  0  0  0  0  0
  -19.8797   -1.9178    0.0000 C   0  0  0  0  0  0  0  0  0  0  0  0
  -18.6661   -2.7995    0.0000 N   0  0  0  0  0  0  0  0  0  0  0  0
  -19.7229   -0.4260    0.0000 C   0  0  0  0  0  0  0  0  0  0  0  0
  -18.3526    0.1841    0.0000 C   0  0  0  0  0  0  0  0  0  0  0  0
  -18.1958    1.6758    0.0000 C   0  0  0  0  0  0  0  0  0  0  0  0
  -16.8254    2.2859    0.0000 C   0  0  0  0  0  0  0  0  0  0  0  0
  -15.6119    1.4043    0.0000 C   0  0  0  0  0  0  0  0  0  0  0  0
  -15.7687   -0.0875    0.0000 C   0  0  0  0  0  0  0  0  0  0  0  0
  -17.1390   -0.6976    0.0000 C   0  0  0  0  0  0  0  0  0  0  0  0
   -1.0496   -9.1759    0.0000 C   0  0  0  0  0  0  0  0  0  0  0  0
    0.3207   -8.5658    0.0000 C   0  0  0  0  0  0  0  0  0  0  0  0
  1  2  1  0
  2  3  2  0
  3  4  1  0
  4  5  3  0
  3  6  1  0
  6  7  1  0
  7  8  2  0
  8  9  1  0
  9 10  2  0
 10 11  1  0
 11 12  3  0
 10 13  1  0
 13 14  2  0
  6 15  2  0
 15 16  1  0
 15 17  1  0
 17 18  1  0
 18 19  1  0
 19 20  2  0
 20 21  1  0
 21 22  2  0
 22 23  1  0
 23 24  2  0
 23 25  1  0
 25 26  1  0
 26 27  1  0
 27 28  1  0
 28 29  1  0
 29 30  1  0
 30 31  1  0
 31 32  1  0
 32 33  1  0
 33 34  1  0
 34 35  1  0
 35 36  1  0
 36 37  1  0
 37 38  1  0
 38 39  2  0
 38 40  1  0
 40 41  1  6
 41 42  1  0
 42 43  1  0
 42 44  1  0
 40 45  1  0
 45 46  1  0
 46 47  2  0
 46 48  1  0
 48 49  1  1
 48 50  1  0
 50 51  1  1
 50 52  1  0
 52 53  1  0
 53 54  2  0
 54 55  1  0
 55 56  2  0
 56 57  1  0
 57 58  2  0
 22 59  1  0
 59 60  2  0
 17  2  1  0
 60 19  1  0
 14  7  1  0
 58 53  1  0
M  END
>  <assay_chembl_id>  (667) 
CHEMBL4219476

>  <assay_description>  (667) 
Displacement of [17-alpha-methyl-H-3] mibolerone from wild-type androgen receptor (unknown origin) expressed in human Freestyle293F cells measured after 3 hrs

>  <parent_molecule_chembl_id>  (667) 
CHEMBL4225186

>  <canonical_smiles>  (667) 
Cc1c(C#N)c(-c2ccc(C#N)cc2)c(C)n1Cc1ccc(C(=O)NCCOCCOCCOCCNC(=O)[C@H](CC(C)C)NC(=O)[C@@H](O)[C@H](N)Cc2ccccc2)cc1

>  <standard_type>  (667) 
IC50

>  <standard_relation>  (667) 
=

>  <standard_value>  (667) 
27.0

>  <standard_units>  (667) 
nM

>  <target_pref_name>  (667) 
Androgen Receptor

>  <target_chembl_id>  (667) 
CHEMBL1871

>  <target_organism>  (667) 
Homo sapiens

>  <pchembl_median>  (667) 
6.91

$$$$
CHEMBL4227287
     RDKit          2D

 64 66  0  0  0  0  0  0  0  0999 V2000
    1.5000  -12.9904    0.0000 C   0  0  0  0  0  0  0  0  0  0  0  0
    0.7500  -11.6913    0.0000 C   0  0  0  0  0  0  0  0  0  0  0  0
   -0.7500  -11.6913    0.0000 C   0  0  0  0  0  0  0  0  0  0  0  0
    1.5000  -10.3923    0.0000 C   0  0  0  0  0  0  0  0  0  0  0  0
    0.7500   -9.0933    0.0000 C   0  0  0  0  0  0  0  0  0  0  0  0
    1.5000   -7.7942    0.0000 N   0  0  0  0  0  0  0  0  0  0  0  0
    0.7500   -6.4952    0.0000 C   0  0  0  0  0  0  0  0  0  0  0  0
   -0.7500   -6.4952    0.0000 O   0  0  0  0  0  0  0  0  0  0  0  0
    1.5000   -5.1962    0.0000 C   0  0  0  0  0  0  0  0  0  0  0  0
    3.0000   -5.1962    0.0000 O   0  0  0  0  0  0  0  0  0  0  0  0
    0.7500   -3.8971    0.0000 C   0  0  0  0  0  0  0  0  0  0  0  0
   -0.7500   -3.8971    0.0000 N   0  0  0  0  0  0  0  0  0  0  0  0
    1.5000   -2.5981    0.0000 C   0  0  0  0  0  0  0  0  0  0  0  0
    0.7500   -1.2990    0.0000 C   0  0  0  0  0  0  0  0  0  0  0  0
    1.5000    0.0000    0.0000 C   0  0  0  0  0  0  0  0  0  0  0  0
    0.7500    1.2990    0.0000 C   0  0  0  0  0  0  0  0  0  0  0  0
   -0.7500    1.2990    0.0000 C   0  0  0  0  0  0  0  0  0  0  0  0
   -1.5000    0.0000    0.0000 C   0  0  0  0  0  0  0  0  0  0  0  0
   -0.7500   -1.2990    0.0000 C   0  0  0  0  0  0  0  0  0  0  0  0
   -0.7500   -9.0933    0.0000 C   0  0  0  0  0  0  0  0  0  0  0  0
   -1.5000   -7.7942    0.0000 O   0  0  0  0  0  0  0  0  0  0  0  0
   -1.5000  -10.3923    0.0000 N   0  0  0  0  0  0  0  0  0  0  0  0
   -3.0000  -10.3923    0.0000 C   0  0  0  0  0  0  0  0  0  0  0  0
   -3.7500  -11.6913    0.0000 C   0  0  0  0  0  0  0  0  0  0  0  0
   -5.2500  -11.6913    0.0000 O   0  0  0  0  0  0  0  0  0  0  0  0
   -6.0000  -12.9904    0.0000 C   0  0  0  0  0  0  0  0  0  0  0  0
   -7.5000  -12.9904    0.0000 C   0  0  0  0  0  0  0  0  0  0  0  0
   -8.2500  -14.2894    0.0000 O   0  0  0  0  0  0  0  0  0  0  0  0
   -9.7500  -14.2894    0.0000 C   0  0  0  0  0  0  0  0  0  0  0  0
  -10.5000  -15.5885    0.0000 C   0  0  0  0  0  0  0  0  0  0  0  0
  -12.0000  -15.5885    0.0000 O   0  0  0  0  0  0  0  0  0  0  0  0
  -12.7500  -16.8875    0.0000 C   0  0  0  0  0  0  0  0  0  0  0  0
  -14.2500  -16.8875    0.0000 C   0  0  0  0  0  0  0  0  0  0  0  0
  -15.0000  -18.1865    0.0000 N   0  0  0  0  0  0  0  0  0  0  0  0
  -16.5000  -18.1865    0.0000 C   0  0  0  0  0  0  0  0  0  0  0  0
  -17.2500  -16.8875    0.0000 O   0  0  0  0  0  0  0  0  0  0  0  0
  -17.2500  -19.4856    0.0000 C   0  0  0  0  0  0  0  0  0  0  0  0
  -18.7500  -19.4856    0.0000 C   0  0  0  0  0  0  0  0  0  0  0  0
  -19.5000  -20.7846    0.0000 C   0  0  0  0  0  0  0  0  0  0  0  0
  -18.7500  -22.0836    0.0000 C   0  0  0  0  0  0  0  0  0  0  0  0
  -19.5000  -23.3827    0.0000 S   0  0  0  0  0  0  0  0  0  0  0  0
  -18.2010  -24.1327    0.0000 O   0  0  0  0  0  0  0  0  0  0  0  0
  -20.7990  -22.6327    0.0000 O   0  0  0  0  0  0  0  0  0  0  0  0
  -20.2500  -24.6817    0.0000 C   0  0  0  0  0  0  0  0  0  0  0  0
  -19.5000  -25.9808    0.0000 C   0  0  0  0  0  0  0  0  0  0  0  0
  -18.2010  -25.2308    0.0000 C   0  0  0  0  0  0  0  0  0  0  0  0
  -18.7500  -27.2798    0.0000 O   0  0  0  0  0  0  0  0  0  0  0  0
  -20.7990  -26.7308    0.0000 C   0  0  0  0  0  0  0  0  0  0  0  0
  -22.0981  -25.9808    0.0000 O   0  0  0  0  0  0  0  0  0  0  0  0
  -20.7990  -28.2308    0.0000 N   0  0  0  0  0  0  0  0  0  0  0  0
  -22.0981  -28.9808    0.0000 C   0  0  0  0  0  0  0  0  0  0  0  0
  -23.3971  -28.2308    0.0000 C   0  0  0  0  0  0  0  0  0  0  0  0
  -24.6962  -28.9808    0.0000 C   0  0  0  0  0  0  0  0  0  0  0  0
  -24.6962  -30.4808    0.0000 C   0  0  0  0  0  0  0  0  0  0  0  0
  -25.9952  -31.2308    0.0000 C   0  0  0  0  0  0  0  0  0  0  0  0
  -27.2942  -31.9808    0.0000 N   0  0  0  0  0  0  0  0  0  0  0  0
  -23.3971  -31.2308    0.0000 C   0  0  0  0  0  0  0  0  0  0  0  0
  -23.3971  -32.7308    0.0000 C   0  0  0  0  0  0  0  0  0  0  0  0
  -23.3971  -34.2308    0.0000 F   0  0  0  0  0  0  0  0  0  0  0  0
  -21.8971  -32.7308    0.0000 F   0  0  0  0  0  0  0  0  0  0  0  0
  -24.8971  -32.7308    0.0000 F   0  0  0  0  0  0  0  0  0  0  0  0
  -22.0981  -30.4808    0.0000 C   0  0  0  0  0  0  0  0  0  0  0  0
  -17.2500  -22.0836    0.0000 C   0  0  0  0  0  0  0  0  0  0  0  0
  -16.5000  -20.7846    0.0000 C   0  0  0  0  0  0  0  0  0  0  0  0
  1  2  1  0
  2  3  1  0
  2  4  1  0
  5  4  1  1
  5  6  1  0
  6  7  1  0
  7  8  2  0
  7  9  1  0
  9 10  1  6
  9 11  1  0
 11 12  1  6
 11 13  1  0
 13 14  1  0
 14 15  2  0
 15 16  1  0
 16 17  2  0
 17 18  1  0
 18 19  2  0
  5 20  1  0
 20 21  2  0
 20 22  1  0
 22 23  1  0
 23 24  1  0
 24 25  1  0
 25 26  1  0
 26 27  1  0
 27 28  1  0
 28 29  1  0
 29 30  1  0
 30 31  1  0
 31 32  1  0
 32 33  1  0
 33 34  1  0
 34 35  1  0
 35 36  2  0
 35 37  1  0
 37 38  2  0
 38 39  1  0
 39 40  2  0
 40 41  1  0
 41 42  2  0
 41 43  2  0
 41 44  1  0
 44 45  1  0
 45 46  1  0
 45 47  1  0
 45 48  1  0
 48 49  2  0
 48 50  1  0
 50 51  1  0
 51 52  2  0
 52 53  1  0
 53 54  2  0
 54 55  1  0
 55 56  3  0
 54 57  1  0
 57 58  1  0
 58 59  1  0
 58 60  1  0
 58 61  1  0
 57 62  2  0
 40 63  1  0
 63 64  2  0
 19 14  1  0
 64 37  1  0
 62 51  1  0
M  END
>  <assay_chembl_id>  (668) 
CHEMBL4219476

>  <assay_description>  (668) 
Displacement of [17-alpha-methyl-H-3] mibolerone from wild-type androgen receptor (unknown origin) expressed in human Freestyle293F cells measured after 3 hrs

>  <parent_molecule_chembl_id>  (668) 
CHEMBL4227287

>  <canonical_smiles>  (668) 
CC(C)C[C@H](NC(=O)[C@@H](O)[C@H](N)Cc1ccccc1)C(=O)NCCOCCOCCOCCNC(=O)c1ccc(S(=O)(=O)CC(C)(O)C(=O)Nc2ccc(C#N)c(C(F)(F)F)c2)cc1

>  <standard_type>  (668) 
IC50

>  <standard_relation>  (668) 
=

>  <standard_value>  (668) 
1100.0

>  <standard_units>  (668) 
nM

>  <target_pref_name>  (668) 
Androgen Receptor

>  <target_chembl_id>  (668) 
CHEMBL1871

>  <target_organism>  (668) 
Homo sapiens

>  <pchembl_median>  (668) 
5.57

$$$$
CHEMBL4226899
     RDKit          2D

 62 65  0  0  0  0  0  0  0  0999 V2000
    4.6740   -4.8322    0.0000 C   0  0  0  0  0  0  0  0  0  0  0  0
    3.3037   -4.2221    0.0000 C   0  0  0  0  0  0  0  0  0  0  0  0
    2.9918   -2.7549    0.0000 N   0  0  0  0  0  0  0  0  0  0  0  0
    1.5000   -2.5981    0.0000 N   0  0  0  0  0  0  0  0  0  0  0  0
    0.7500   -1.2990    0.0000 C   0  0  0  0  0  0  0  0  0  0  0  0
    1.5000    0.0000    0.0000 C   0  0  0  0  0  0  0  0  0  0  0  0
    0.7500    1.2990    0.0000 C   0  0  0  0  0  0  0  0  0  0  0  0
   -0.7500    1.2990    0.0000 C   0  0  0  0  0  0  0  0  0  0  0  0
   -1.5000    2.5981    0.0000 C   0  0  0  0  0  0  0  0  0  0  0  0
   -2.2500    3.8971    0.0000 N   0  0  0  0  0  0  0  0  0  0  0  0
   -1.5000    0.0000    0.0000 C   0  0  0  0  0  0  0  0  0  0  0  0
   -3.0000    0.0000    0.0000 C   0  0  0  0  0  0  0  0  0  0  0  0
   -4.5000    0.0000    0.0000 F   0  0  0  0  0  0  0  0  0  0  0  0
   -3.0000   -1.5000    0.0000 F   0  0  0  0  0  0  0  0  0  0  0  0
   -3.0000    1.5000    0.0000 F   0  0  0  0  0  0  0  0  0  0  0  0
   -0.7500   -1.2990    0.0000 C   0  0  0  0  0  0  0  0  0  0  0  0
    0.8899   -3.9684    0.0000 C   0  0  0  0  0  0  0  0  0  0  0  0
   -0.5773   -4.2803    0.0000 C   0  0  0  0  0  0  0  0  0  0  0  0
    2.0046   -4.9721    0.0000 C   0  0  0  0  0  0  0  0  0  0  0  0
    1.8478   -6.4639    0.0000 C   0  0  0  0  0  0  0  0  0  0  0  0
    0.4775   -7.0740    0.0000 C   0  0  0  0  0  0  0  0  0  0  0  0
   -0.7360   -6.1923    0.0000 C   0  0  0  0  0  0  0  0  0  0  0  0
   -2.1063   -6.8024    0.0000 C   0  0  0  0  0  0  0  0  0  0  0  0
   -2.2631   -8.2942    0.0000 C   0  0  0  0  0  0  0  0  0  0  0  0
   -3.6335   -8.9043    0.0000 C   0  0  0  0  0  0  0  0  0  0  0  0
   -3.7902  -10.3961    0.0000 O   0  0  0  0  0  0  0  0  0  0  0  0
   -4.8470   -8.0226    0.0000 N   0  0  0  0  0  0  0  0  0  0  0  0
   -6.2173   -8.6327    0.0000 C   0  0  0  0  0  0  0  0  0  0  0  0
   -7.4308   -7.7510    0.0000 C   0  0  0  0  0  0  0  0  0  0  0  0
   -8.8011   -8.3611    0.0000 O   0  0  0  0  0  0  0  0  0  0  0  0
  -10.0147   -7.4795    0.0000 C   0  0  0  0  0  0  0  0  0  0  0  0
  -11.3850   -8.0896    0.0000 C   0  0  0  0  0  0  0  0  0  0  0  0
  -12.5985   -7.2079    0.0000 O   0  0  0  0  0  0  0  0  0  0  0  0
  -13.9688   -7.8180    0.0000 C   0  0  0  0  0  0  0  0  0  0  0  0
  -15.1824   -6.9363    0.0000 C   0  0  0  0  0  0  0  0  0  0  0  0
  -16.5527   -7.5464    0.0000 O   0  0  0  0  0  0  0  0  0  0  0  0
  -17.7662   -6.6648    0.0000 C   0  0  0  0  0  0  0  0  0  0  0  0
  -19.1365   -7.2749    0.0000 C   0  0  0  0  0  0  0  0  0  0  0  0
  -20.3500   -6.3932    0.0000 N   0  0  0  0  0  0  0  0  0  0  0  0
  -21.7204   -7.0033    0.0000 C   0  0  0  0  0  0  0  0  0  0  0  0
  -21.8772   -8.4951    0.0000 O   0  0  0  0  0  0  0  0  0  0  0  0
  -22.9339   -6.1216    0.0000 C   0  0  0  0  0  0  0  0  0  0  0  0
  -24.3042   -6.7317    0.0000 C   0  0  0  0  0  0  0  0  0  0  0  0
  -25.5177   -5.8500    0.0000 C   0  0  0  0  0  0  0  0  0  0  0  0
  -26.8880   -6.4601    0.0000 C   0  0  0  0  0  0  0  0  0  0  0  0
  -25.3609   -4.3582    0.0000 C   0  0  0  0  0  0  0  0  0  0  0  0
  -22.7771   -4.6298    0.0000 N   0  0  0  0  0  0  0  0  0  0  0  0
  -21.4068   -4.0197    0.0000 C   0  0  0  0  0  0  0  0  0  0  0  0
  -20.1932   -4.9014    0.0000 O   0  0  0  0  0  0  0  0  0  0  0  0
  -21.2500   -2.5279    0.0000 C   0  0  0  0  0  0  0  0  0  0  0  0
  -22.4635   -1.6463    0.0000 O   0  0  0  0  0  0  0  0  0  0  0  0
  -19.8797   -1.9178    0.0000 C   0  0  0  0  0  0  0  0  0  0  0  0
  -18.6661   -2.7995    0.0000 N   0  0  0  0  0  0  0  0  0  0  0  0
  -19.7229   -0.4260    0.0000 C   0  0  0  0  0  0  0  0  0  0  0  0
  -18.3526    0.1841    0.0000 C   0  0  0  0  0  0  0  0  0  0  0  0
  -18.1958    1.6758    0.0000 C   0  0  0  0  0  0  0  0  0  0  0  0
  -16.8254    2.2859    0.0000 C   0  0  0  0  0  0  0  0  0  0  0  0
  -15.6119    1.4043    0.0000 C   0  0  0  0  0  0  0  0  0  0  0  0
  -15.7687   -0.0875    0.0000 C   0  0  0  0  0  0  0  0  0  0  0  0
  -17.1390   -0.6976    0.0000 C   0  0  0  0  0  0  0  0  0  0  0  0
   -1.0496   -9.1759    0.0000 C   0  0  0  0  0  0  0  0  0  0  0  0
    0.3207   -8.5658    0.0000 C   0  0  0  0  0  0  0  0  0  0  0  0
  1  2  1  0
  2  3  2  0
  3  4  1  0
  4  5  1  0
  5  6  2  0
  6  7  1  0
  7  8  2  0
  8  9  1  0
  9 10  3  0
  8 11  1  0
 11 12  1  0
 12 13  1  0
 12 14  1  0
 12 15  1  0
 11 16  2  0
  4 17  1  0
 17 18  1  0
 17 19  2  0
 19 20  1  0
 20 21  1  0
 21 22  2  0
 22 23  1  0
 23 24  2  0
 24 25  1  0
 25 26  2  0
 25 27  1  0
 27 28  1  0
 28 29  1  0
 29 30  1  0
 30 31  1  0
 31 32  1  0
 32 33  1  0
 33 34  1  0
 34 35  1  0
 35 36  1  0
 36 37  1  0
 37 38  1  0
 38 39  1  0
 39 40  1  0
 40 41  2  0
 40 42  1  0
 42 43  1  6
 43 44  1  0
 44 45  1  0
 44 46  1  0
 42 47  1  0
 47 48  1  0
 48 49  2  0
 48 50  1  0
 50 51  1  1
 50 52  1  0
 52 53  1  1
 52 54  1  0
 54 55  1  0
 55 56  2  0
 56 57  1  0
 57 58  2  0
 58 59  1  0
 59 60  2  0
 24 61  1  0
 61 62  2  0
 19  2  1  0
 62 21  1  0
 16  5  1  0
 60 55  1  0
M  END
>  <assay_chembl_id>  (669) 
CHEMBL4219476

>  <assay_description>  (669) 
Displacement of [17-alpha-methyl-H-3] mibolerone from wild-type androgen receptor (unknown origin) expressed in human Freestyle293F cells measured after 3 hrs

>  <parent_molecule_chembl_id>  (669) 
CHEMBL4226899

>  <canonical_smiles>  (669) 
Cc1nn(-c2ccc(C#N)c(C(F)(F)F)c2)c(C)c1Cc1ccc(C(=O)NCCOCCOCCOCCNC(=O)[C@H](CC(C)C)NC(=O)[C@@H](O)[C@H](N)Cc2ccccc2)cc1

>  <standard_type>  (669) 
IC50

>  <standard_relation>  (669) 
=

>  <standard_value>  (669) 
190.0

>  <standard_units>  (669) 
nM

>  <target_pref_name>  (669) 
Androgen Receptor

>  <target_chembl_id>  (669) 
CHEMBL1871

>  <target_organism>  (669) 
Homo sapiens

>  <pchembl_median>  (669) 
5.18

$$$$
CHEMBL4226314
     RDKit          2D

 60 63  0  0  0  0  0  0  0  0999 V2000
    4.6740   -4.8322    0.0000 C   0  0  0  0  0  0  0  0  0  0  0  0
    3.3037   -4.2221    0.0000 C   0  0  0  0  0  0  0  0  0  0  0  0
    2.9918   -2.7549    0.0000 N   0  0  0  0  0  0  0  0  0  0  0  0
    1.5000   -2.5981    0.0000 N   0  0  0  0  0  0  0  0  0  0  0  0
    0.7500   -1.2990    0.0000 C   0  0  0  0  0  0  0  0  0  0  0  0
    1.5000    0.0000    0.0000 C   0  0  0  0  0  0  0  0  0  0  0  0
    0.7500    1.2990    0.0000 C   0  0  0  0  0  0  0  0  0  0  0  0
   -0.7500    1.2990    0.0000 C   0  0  0  0  0  0  0  0  0  0  0  0
   -1.5000    2.5981    0.0000 C   0  0  0  0  0  0  0  0  0  0  0  0
   -2.2500    3.8971    0.0000 N   0  0  0  0  0  0  0  0  0  0  0  0
   -1.5000    0.0000    0.0000 C   0  0  0  0  0  0  0  0  0  0  0  0
   -3.0000    0.0000    0.0000 Cl  0  0  0  0  0  0  0  0  0  0  0  0
   -0.7500   -1.2990    0.0000 C   0  0  0  0  0  0  0  0  0  0  0  0
    0.8899   -3.9684    0.0000 C   0  0  0  0  0  0  0  0  0  0  0  0
   -0.5773   -4.2803    0.0000 C   0  0  0  0  0  0  0  0  0  0  0  0
    2.0046   -4.9721    0.0000 C   0  0  0  0  0  0  0  0  0  0  0  0
    1.8478   -6.4639    0.0000 C   0  0  0  0  0  0  0  0  0  0  0  0
    0.4775   -7.0740    0.0000 C   0  0  0  0  0  0  0  0  0  0  0  0
    0.3207   -8.5658    0.0000 C   0  0  0  0  0  0  0  0  0  0  0  0
   -1.0496   -9.1759    0.0000 C   0  0  0  0  0  0  0  0  0  0  0  0
   -1.2064  -10.6676    0.0000 C   0  0  0  0  0  0  0  0  0  0  0  0
    0.0071  -11.5493    0.0000 C   0  0  0  0  0  0  0  0  0  0  0  0
   -0.1497  -13.0411    0.0000 C   0  0  0  0  0  0  0  0  0  0  0  0
    1.0639  -13.9228    0.0000 O   0  0  0  0  0  0  0  0  0  0  0  0
   -1.5200  -13.6512    0.0000 N   0  0  0  0  0  0  0  0  0  0  0  0
   -1.6768  -15.1430    0.0000 C   0  0  0  0  0  0  0  0  0  0  0  0
   -3.0471  -15.7531    0.0000 C   0  0  0  0  0  0  0  0  0  0  0  0
   -3.2039  -17.2449    0.0000 O   0  0  0  0  0  0  0  0  0  0  0  0
   -4.5742  -17.8550    0.0000 C   0  0  0  0  0  0  0  0  0  0  0  0
   -4.7310  -19.3468    0.0000 C   0  0  0  0  0  0  0  0  0  0  0  0
   -6.1013  -19.9569    0.0000 O   0  0  0  0  0  0  0  0  0  0  0  0
   -6.2581  -21.4487    0.0000 C   0  0  0  0  0  0  0  0  0  0  0  0
   -7.6284  -22.0588    0.0000 C   0  0  0  0  0  0  0  0  0  0  0  0
   -7.7852  -23.5505    0.0000 O   0  0  0  0  0  0  0  0  0  0  0  0
   -9.1555  -24.1607    0.0000 C   0  0  0  0  0  0  0  0  0  0  0  0
   -9.3123  -25.6524    0.0000 C   0  0  0  0  0  0  0  0  0  0  0  0
  -10.6827  -26.2625    0.0000 N   0  0  0  0  0  0  0  0  0  0  0  0
  -10.8394  -27.7543    0.0000 C   0  0  0  0  0  0  0  0  0  0  0  0
   -9.6259  -28.6360    0.0000 O   0  0  0  0  0  0  0  0  0  0  0  0
  -12.2098  -28.3644    0.0000 C   0  0  0  0  0  0  0  0  0  0  0  0
  -12.3666  -29.8562    0.0000 C   0  0  0  0  0  0  0  0  0  0  0  0
  -13.7369  -30.4663    0.0000 C   0  0  0  0  0  0  0  0  0  0  0  0
  -13.8937  -31.9581    0.0000 C   0  0  0  0  0  0  0  0  0  0  0  0
  -14.9504  -29.5846    0.0000 C   0  0  0  0  0  0  0  0  0  0  0  0
  -13.4233  -27.4828    0.0000 N   0  0  0  0  0  0  0  0  0  0  0  0
  -13.2665  -25.9910    0.0000 C   0  0  0  0  0  0  0  0  0  0  0  0
  -11.8962  -25.3809    0.0000 O   0  0  0  0  0  0  0  0  0  0  0  0
  -14.4800  -25.1093    0.0000 C   0  0  0  0  0  0  0  0  0  0  0  0
  -15.8503  -25.7194    0.0000 O   0  0  0  0  0  0  0  0  0  0  0  0
  -14.3232  -23.6175    0.0000 C   0  0  0  0  0  0  0  0  0  0  0  0
  -12.9529  -23.0074    0.0000 N   0  0  0  0  0  0  0  0  0  0  0  0
  -15.5368  -22.7358    0.0000 C   0  0  0  0  0  0  0  0  0  0  0  0
  -15.3800  -21.2440    0.0000 C   0  0  0  0  0  0  0  0  0  0  0  0
  -16.5935  -20.3624    0.0000 C   0  0  0  0  0  0  0  0  0  0  0  0
  -16.4367  -18.8706    0.0000 C   0  0  0  0  0  0  0  0  0  0  0  0
  -15.0664  -18.2605    0.0000 C   0  0  0  0  0  0  0  0  0  0  0  0
  -13.8529  -19.1422    0.0000 C   0  0  0  0  0  0  0  0  0  0  0  0
  -14.0096  -20.6339    0.0000 C   0  0  0  0  0  0  0  0  0  0  0  0
    1.3774  -10.9392    0.0000 C   0  0  0  0  0  0  0  0  0  0  0  0
    1.5342   -9.4474    0.0000 C   0  0  0  0  0  0  0  0  0  0  0  0
  1  2  1  0
  2  3  2  0
  3  4  1  0
  4  5  1  0
  5  6  2  0
  6  7  1  0
  7  8  2  0
  8  9  1  0
  9 10  3  0
  8 11  1  0
 11 12  1  0
 11 13  2  0
  4 14  1  0
 14 15  1  0
 14 16  2  0
 16 17  1  0
 17 18  1  0
 18 19  1  0
 19 20  2  0
 20 21  1  0
 21 22  2  0
 22 23  1  0
 23 24  2  0
 23 25  1  0
 25 26  1  0
 26 27  1  0
 27 28  1  0
 28 29  1  0
 29 30  1  0
 30 31  1  0
 31 32  1  0
 32 33  1  0
 33 34  1  0
 34 35  1  0
 35 36  1  0
 36 37  1  0
 37 38  1  0
 38 39  2  0
 38 40  1  0
 40 41  1  6
 41 42  1  0
 42 43  1  0
 42 44  1  0
 40 45  1  0
 45 46  1  0
 46 47  2  0
 46 48  1  0
 48 49  1  1
 48 50  1  0
 50 51  1  1
 50 52  1  0
 52 53  1  0
 53 54  2  0
 54 55  1  0
 55 56  2  0
 56 57  1  0
 57 58  2  0
 22 59  1  0
 59 60  2  0
 16  2  1  0
 60 19  1  0
 13  5  1  0
 58 53  1  0
M  END
>  <assay_chembl_id>  (670) 
CHEMBL4219476

>  <assay_description>  (670) 
Displacement of [17-alpha-methyl-H-3] mibolerone from wild-type androgen receptor (unknown origin) expressed in human Freestyle293F cells measured after 3 hrs

>  <parent_molecule_chembl_id>  (670) 
CHEMBL4226314

>  <canonical_smiles>  (670) 
Cc1nn(-c2ccc(C#N)c(Cl)c2)c(C)c1CCc1ccc(C(=O)NCCOCCOCCOCCNC(=O)[C@H](CC(C)C)NC(=O)[C@@H](O)[C@H](N)Cc2ccccc2)cc1

>  <standard_type>  (670) 
IC50

>  <standard_relation>  (670) 
=

>  <standard_value>  (670) 
190.0

>  <standard_units>  (670) 
nM

>  <target_pref_name>  (670) 
Androgen Receptor

>  <target_chembl_id>  (670) 
CHEMBL1871

>  <target_organism>  (670) 
Homo sapiens

>  <pchembl_median>  (670) 
7.24

$$$$
CHEMBL1210876
     RDKit          2D

 27 30  0  0  0  0  0  0  0  0999 V2000
    5.2500   -9.0933    0.0000 C   0  0  0  0  0  0  0  0  0  0  0  0
    6.0000   -7.7942    0.0000 O   0  0  0  0  0  0  0  0  0  0  0  0
    5.2500   -6.4952    0.0000 C   0  0  0  0  0  0  0  0  0  0  0  0
    3.7500   -6.4952    0.0000 C   0  0  0  0  0  0  0  0  0  0  0  0
    3.0000   -5.1962    0.0000 C   0  0  0  0  0  0  0  0  0  0  0  0
    3.7500   -3.8971    0.0000 C   0  0  0  0  0  0  0  0  0  0  0  0
    3.0000   -2.5981    0.0000 C   0  0  0  0  0  0  0  0  0  0  0  0
    1.5000   -2.5981    0.0000 C   0  0  0  0  0  0  0  0  0  0  0  0
    0.7500   -1.2990    0.0000 C   0  0  0  0  0  0  0  0  0  0  0  0
    1.5000    0.0000    0.0000 C   0  0  0  0  0  0  0  0  0  0  0  0
    0.7500    1.2990    0.0000 C   0  0  0  0  0  0  0  0  0  0  0  0
   -0.7500    1.2990    0.0000 C   0  0  0  0  0  0  0  0  0  0  0  0
   -1.5000    0.0000    0.0000 C   0  0  0  0  0  0  0  0  0  0  0  0
   -3.0000    0.0000    0.0000 Cl  0  0  0  0  0  0  0  0  0  0  0  0
   -0.7500   -1.2990    0.0000 C   0  0  0  0  0  0  0  0  0  0  0  0
   -1.5000   -2.5981    0.0000 C   0  0  0  0  0  0  0  0  0  0  0  0
   -3.0000   -2.5981    0.0000 O   0  0  0  0  0  0  0  0  0  0  0  0
   -0.7500   -3.8971    0.0000 C   0  0  0  0  0  0  0  0  0  0  0  0
   -1.5000   -5.1962    0.0000 C   0  0  0  0  0  0  0  0  0  0  0  0
   -3.0000   -5.1962    0.0000 Cl  0  0  0  0  0  0  0  0  0  0  0  0
   -0.7500   -6.4952    0.0000 C   0  0  0  0  0  0  0  0  0  0  0  0
    0.7500   -6.4952    0.0000 C   0  0  0  0  0  0  0  0  0  0  0  0
    1.5000   -5.1962    0.0000 C   0  0  0  0  0  0  0  0  0  0  0  0
    0.7500   -3.8971    0.0000 C   0  0  0  0  0  0  0  0  0  0  0  0
    5.2500   -3.8971    0.0000 C   0  0  0  0  0  0  0  0  0  0  0  0
    6.0000   -5.1962    0.0000 C   0  0  0  0  0  0  0  0  0  0  0  0
    7.5000   -5.1962    0.0000 O   0  0  0  0  0  0  0  0  0  0  0  0
  1  2  1  0
  2  3  1  0
  3  4  2  0
  4  5  1  0
  5  6  2  0
  6  7  1  0
  7  8  2  3
  8  9  1  0
  9 10  2  0
 10 11  1  0
 11 12  2  0
 12 13  1  0
 13 14  1  0
 13 15  2  0
 15 16  1  0
 16 17  2  0
 16 18  1  0
 18 19  2  0
 19 20  1  0
 19 21  1  0
 21 22  2  0
 22 23  1  0
 23 24  2  0
  6 25  1  0
 25 26  2  0
 26 27  1  0
 26  3  1  0
 24  8  1  0
 15  9  1  0
 24 18  1  0
M  END
>  <assay_chembl_id>  (671) 
CHEMBL4275679

>  <assay_description>  (671) 
Inhibition of full length AR transcriptional activity in human LNCAP cells harboring AR2PB-eGFP construct assessed as reduction in R1881-induced secreted PSA level after 72 hrs by fluorescence assay

>  <parent_molecule_chembl_id>  (671) 
CHEMBL1210876

>  <canonical_smiles>  (671) 
COc1ccc(C=C2c3cccc(Cl)c3C(=O)c3c(Cl)cccc32)cc1O

>  <standard_type>  (671) 
IC50

>  <standard_relation>  (671) 
=

>  <standard_value>  (671) 
340.0

>  <standard_units>  (671) 
nM

>  <target_pref_name>  (671) 
Androgen Receptor

>  <target_chembl_id>  (671) 
CHEMBL1871

>  <target_organism>  (671) 
Homo sapiens

>  <pchembl_median>  (671) 
5.36

$$$$
CHEMBL1210959
     RDKit          2D

 29 32  0  0  0  0  0  0  0  0999 V2000
    5.2500   -9.0933    0.0000 C   0  0  0  0  0  0  0  0  0  0  0  0
    6.0000   -7.7942    0.0000 O   0  0  0  0  0  0  0  0  0  0  0  0
    5.2500   -6.4952    0.0000 C   0  0  0  0  0  0  0  0  0  0  0  0
    3.7500   -6.4952    0.0000 C   0  0  0  0  0  0  0  0  0  0  0  0
    3.0000   -5.1962    0.0000 C   0  0  0  0  0  0  0  0  0  0  0  0
    3.7500   -3.8971    0.0000 C   0  0  0  0  0  0  0  0  0  0  0  0
    3.0000   -2.5981    0.0000 C   0  0  0  0  0  0  0  0  0  0  0  0
    1.5000   -2.5981    0.0000 C   0  0  0  0  0  0  0  0  0  0  0  0
    0.7500   -1.2990    0.0000 C   0  0  0  0  0  0  0  0  0  0  0  0
    1.5000    0.0000    0.0000 C   0  0  0  0  0  0  0  0  0  0  0  0
    0.7500    1.2990    0.0000 C   0  0  0  0  0  0  0  0  0  0  0  0
   -0.7500    1.2990    0.0000 C   0  0  0  0  0  0  0  0  0  0  0  0
   -1.5000    0.0000    0.0000 C   0  0  0  0  0  0  0  0  0  0  0  0
   -3.0000    0.0000    0.0000 Cl  0  0  0  0  0  0  0  0  0  0  0  0
   -0.7500   -1.2990    0.0000 C   0  0  0  0  0  0  0  0  0  0  0  0
   -1.5000   -2.5981    0.0000 C   0  0  0  0  0  0  0  0  0  0  0  0
   -3.0000   -2.5981    0.0000 O   0  0  0  0  0  0  0  0  0  0  0  0
   -0.7500   -3.8971    0.0000 C   0  0  0  0  0  0  0  0  0  0  0  0
   -1.5000   -5.1962    0.0000 C   0  0  0  0  0  0  0  0  0  0  0  0
   -3.0000   -5.1962    0.0000 Cl  0  0  0  0  0  0  0  0  0  0  0  0
   -0.7500   -6.4952    0.0000 C   0  0  0  0  0  0  0  0  0  0  0  0
    0.7500   -6.4952    0.0000 C   0  0  0  0  0  0  0  0  0  0  0  0
    1.5000   -5.1962    0.0000 C   0  0  0  0  0  0  0  0  0  0  0  0
    0.7500   -3.8971    0.0000 C   0  0  0  0  0  0  0  0  0  0  0  0
    5.2500   -3.8971    0.0000 C   0  0  0  0  0  0  0  0  0  0  0  0
    6.0000   -2.5981    0.0000 O   0  0  0  0  0  0  0  0  0  0  0  0
    7.5000   -2.5981    0.0000 C   0  0  0  0  0  0  0  0  0  0  0  0
    6.0000   -5.1962    0.0000 C   0  0  0  0  0  0  0  0  0  0  0  0
    7.5000   -5.1962    0.0000 O   0  0  0  0  0  0  0  0  0  0  0  0
  1  2  1  0
  2  3  1  0
  3  4  2  0
  4  5  1  0
  5  6  2  0
  6  7  1  0
  7  8  2  3
  8  9  1  0
  9 10  2  0
 10 11  1  0
 11 12  2  0
 12 13  1  0
 13 14  1  0
 13 15  2  0
 15 16  1  0
 16 17  2  0
 16 18  1  0
 18 19  2  0
 19 20  1  0
 19 21  1  0
 21 22  2  0
 22 23  1  0
 23 24  2  0
  6 25  1  0
 25 26  1  0
 26 27  1  0
 25 28  2  0
 28 29  1  0
 28  3  1  0
 24  8  1  0
 15  9  1  0
 24 18  1  0
M  END
>  <assay_chembl_id>  (672) 
CHEMBL4275679

>  <assay_description>  (672) 
Inhibition of full length AR transcriptional activity in human LNCAP cells harboring AR2PB-eGFP construct assessed as reduction in R1881-induced secreted PSA level after 72 hrs by fluorescence assay

>  <parent_molecule_chembl_id>  (672) 
CHEMBL1210959

>  <canonical_smiles>  (672) 
COc1ccc(C=C2c3cccc(Cl)c3C(=O)c3c(Cl)cccc32)c(OC)c1O

>  <standard_type>  (672) 
IC50

>  <standard_relation>  (672) 
=

>  <standard_value>  (672) 
170.0

>  <standard_units>  (672) 
nM

>  <target_pref_name>  (672) 
Androgen Receptor

>  <target_chembl_id>  (672) 
CHEMBL1871

>  <target_organism>  (672) 
Homo sapiens

>  <pchembl_median>  (672) 
7.15

$$$$
CHEMBL1210878
     RDKit          2D

 27 30  0  0  0  0  0  0  0  0999 V2000
    8.2500   -6.4952    0.0000 C   0  0  0  0  0  0  0  0  0  0  0  0
    7.5000   -5.1962    0.0000 O   0  0  0  0  0  0  0  0  0  0  0  0
    6.0000   -5.1962    0.0000 C   0  0  0  0  0  0  0  0  0  0  0  0
    5.2500   -6.4952    0.0000 C   0  0  0  0  0  0  0  0  0  0  0  0
    3.7500   -6.4952    0.0000 C   0  0  0  0  0  0  0  0  0  0  0  0
    3.0000   -5.1962    0.0000 C   0  0  0  0  0  0  0  0  0  0  0  0
    3.7500   -3.8971    0.0000 C   0  0  0  0  0  0  0  0  0  0  0  0
    3.0000   -2.5981    0.0000 C   0  0  0  0  0  0  0  0  0  0  0  0
    1.5000   -2.5981    0.0000 C   0  0  0  0  0  0  0  0  0  0  0  0
    0.7500   -1.2990    0.0000 C   0  0  0  0  0  0  0  0  0  0  0  0
    1.5000    0.0000    0.0000 C   0  0  0  0  0  0  0  0  0  0  0  0
    0.7500    1.2990    0.0000 C   0  0  0  0  0  0  0  0  0  0  0  0
   -0.7500    1.2990    0.0000 C   0  0  0  0  0  0  0  0  0  0  0  0
   -1.5000    0.0000    0.0000 C   0  0  0  0  0  0  0  0  0  0  0  0
   -3.0000    0.0000    0.0000 Cl  0  0  0  0  0  0  0  0  0  0  0  0
   -0.7500   -1.2990    0.0000 C   0  0  0  0  0  0  0  0  0  0  0  0
   -1.5000   -2.5981    0.0000 C   0  0  0  0  0  0  0  0  0  0  0  0
   -3.0000   -2.5981    0.0000 O   0  0  0  0  0  0  0  0  0  0  0  0
   -0.7500   -3.8971    0.0000 C   0  0  0  0  0  0  0  0  0  0  0  0
   -1.5000   -5.1962    0.0000 C   0  0  0  0  0  0  0  0  0  0  0  0
   -3.0000   -5.1962    0.0000 Cl  0  0  0  0  0  0  0  0  0  0  0  0
   -0.7500   -6.4952    0.0000 C   0  0  0  0  0  0  0  0  0  0  0  0
    0.7500   -6.4952    0.0000 C   0  0  0  0  0  0  0  0  0  0  0  0
    1.5000   -5.1962    0.0000 C   0  0  0  0  0  0  0  0  0  0  0  0
    0.7500   -3.8971    0.0000 C   0  0  0  0  0  0  0  0  0  0  0  0
    5.2500   -3.8971    0.0000 C   0  0  0  0  0  0  0  0  0  0  0  0
    6.0000   -2.5981    0.0000 O   0  0  0  0  0  0  0  0  0  0  0  0
  1  2  1  0
  2  3  1  0
  3  4  2  0
  4  5  1  0
  5  6  2  0
  6  7  1  0
  7  8  1  0
  8  9  2  3
  9 10  1  0
 10 11  2  0
 11 12  1  0
 12 13  2  0
 13 14  1  0
 14 15  1  0
 14 16  2  0
 16 17  1  0
 17 18  2  0
 17 19  1  0
 19 20  2  0
 20 21  1  0
 20 22  1  0
 22 23  2  0
 23 24  1  0
 24 25  2  0
  7 26  2  0
 26 27  1  0
 26  3  1  0
 25  9  1  0
 16 10  1  0
 25 19  1  0
M  END
>  <assay_chembl_id>  (673) 
CHEMBL4275679

>  <assay_description>  (673) 
Inhibition of full length AR transcriptional activity in human LNCAP cells harboring AR2PB-eGFP construct assessed as reduction in R1881-induced secreted PSA level after 72 hrs by fluorescence assay

>  <parent_molecule_chembl_id>  (673) 
CHEMBL1210878

>  <canonical_smiles>  (673) 
COc1cccc(C=C2c3cccc(Cl)c3C(=O)c3c(Cl)cccc32)c1O

>  <standard_type>  (673) 
IC50

>  <standard_relation>  (673) 
=

>  <standard_value>  (673) 
730.0

>  <standard_units>  (673) 
nM

>  <target_pref_name>  (673) 
Androgen Receptor

>  <target_chembl_id>  (673) 
CHEMBL1871

>  <target_organism>  (673) 
Homo sapiens

>  <pchembl_median>  (673) 
6.48

$$$$
CHEMBL113332
     RDKit          2D

 25 28  0  0  0  0  0  0  0  0999 V2000
    5.2500   -9.0933    0.0000 C   0  0  0  0  0  0  0  0  0  0  0  0
    6.0000   -7.7942    0.0000 O   0  0  0  0  0  0  0  0  0  0  0  0
    5.2500   -6.4952    0.0000 C   0  0  0  0  0  0  0  0  0  0  0  0
    3.7500   -6.4952    0.0000 C   0  0  0  0  0  0  0  0  0  0  0  0
    3.0000   -5.1962    0.0000 C   0  0  0  0  0  0  0  0  0  0  0  0
    3.7500   -3.8971    0.0000 C   0  0  0  0  0  0  0  0  0  0  0  0
    3.0000   -2.5981    0.0000 C   0  0  0  0  0  0  0  0  0  0  0  0
    1.5000   -2.5981    0.0000 C   0  0  0  0  0  0  0  0  0  0  0  0
    0.7500   -1.2990    0.0000 C   0  0  0  0  0  0  0  0  0  0  0  0
    1.5000    0.0000    0.0000 C   0  0  0  0  0  0  0  0  0  0  0  0
    0.7500    1.2990    0.0000 C   0  0  0  0  0  0  0  0  0  0  0  0
   -0.7500    1.2990    0.0000 C   0  0  0  0  0  0  0  0  0  0  0  0
   -1.5000    0.0000    0.0000 C   0  0  0  0  0  0  0  0  0  0  0  0
   -0.7500   -1.2990    0.0000 C   0  0  0  0  0  0  0  0  0  0  0  0
   -1.5000   -2.5981    0.0000 C   0  0  0  0  0  0  0  0  0  0  0  0
   -3.0000   -2.5981    0.0000 O   0  0  0  0  0  0  0  0  0  0  0  0
   -0.7500   -3.8971    0.0000 C   0  0  0  0  0  0  0  0  0  0  0  0
   -1.5000   -5.1962    0.0000 C   0  0  0  0  0  0  0  0  0  0  0  0
   -0.7500   -6.4952    0.0000 C   0  0  0  0  0  0  0  0  0  0  0  0
    0.7500   -6.4952    0.0000 C   0  0  0  0  0  0  0  0  0  0  0  0
    1.5000   -5.1962    0.0000 C   0  0  0  0  0  0  0  0  0  0  0  0
    0.7500   -3.8971    0.0000 C   0  0  0  0  0  0  0  0  0  0  0  0
    5.2500   -3.8971    0.0000 C   0  0  0  0  0  0  0  0  0  0  0  0
    6.0000   -2.5981    0.0000 O   0  0  0  0  0  0  0  0  0  0  0  0
    6.0000   -5.1962    0.0000 C   0  0  0  0  0  0  0  0  0  0  0  0
  1  2  1  0
  2  3  1  0
  3  4  2  0
  4  5  1  0
  5  6  2  0
  6  7  1  0
  7  8  2  3
  8  9  1  0
  9 10  2  0
 10 11  1  0
 11 12  2  0
 12 13  1  0
 13 14  2  0
 14 15  1  0
 15 16  2  0
 15 17  1  0
 17 18  2  0
 18 19  1  0
 19 20  2  0
 20 21  1  0
 21 22  2  0
  6 23  1  0
 23 24  1  0
 23 25  2  0
 25  3  1  0
 22  8  1  0
 14  9  1  0
 22 17  1  0
M  END
>  <assay_chembl_id>  (674) 
CHEMBL4275679

>  <assay_description>  (674) 
Inhibition of full length AR transcriptional activity in human LNCAP cells harboring AR2PB-eGFP construct assessed as reduction in R1881-induced secreted PSA level after 72 hrs by fluorescence assay

>  <parent_molecule_chembl_id>  (674) 
CHEMBL113332

>  <canonical_smiles>  (674) 
COc1ccc(C=C2c3ccccc3C(=O)c3ccccc32)c(O)c1

>  <standard_type>  (674) 
IC50

>  <standard_relation>  (674) 
=

>  <standard_value>  (674) 
100.0

>  <standard_units>  (674) 
nM

>  <target_pref_name>  (674) 
Androgen Receptor

>  <target_chembl_id>  (674) 
CHEMBL1871

>  <target_organism>  (674) 
Homo sapiens

>  <pchembl_median>  (674) 
7.09

$$$$
CHEMBL4278637
     RDKit          2D

 23 26  0  0  0  0  0  0  0  0999 V2000
    3.0000   -2.5981    0.0000 O   0  0  0  0  0  0  0  0  0  0  0  0
    1.5000   -2.5981    0.0000 C   0  0  0  0  0  0  0  0  0  0  0  0
    0.7500   -1.2990    0.0000 C   0  0  0  0  0  0  0  0  0  0  0  0
    1.5000    0.0000    0.0000 C   0  0  0  0  0  0  0  0  0  0  0  0
    0.7500    1.2990    0.0000 C   0  0  0  0  0  0  0  0  0  0  0  0
   -0.7500    1.2990    0.0000 C   0  0  0  0  0  0  0  0  0  0  0  0
   -1.5000    0.0000    0.0000 C   0  0  0  0  0  0  0  0  0  0  0  0
   -0.7500   -1.2990    0.0000 C   0  0  0  0  0  0  0  0  0  0  0  0
   -1.5000   -2.5981    0.0000 C   0  0  0  0  0  0  0  0  0  0  0  0
   -3.0000   -2.5981    0.0000 C   0  0  0  0  0  0  0  0  0  0  0  0
   -3.7500   -1.2990    0.0000 C   0  0  0  0  0  0  0  0  0  0  0  0
   -3.0000    0.0000    0.0000 C   0  0  0  0  0  0  0  0  0  0  0  0
   -3.7500    1.2990    0.0000 C   0  0  0  0  0  0  0  0  0  0  0  0
   -5.2500    1.2990    0.0000 C   0  0  0  0  0  0  0  0  0  0  0  0
   -6.0000    0.0000    0.0000 C   0  0  0  0  0  0  0  0  0  0  0  0
   -7.5000    0.0000    0.0000 O   0  0  0  0  0  0  0  0  0  0  0  0
   -5.2500   -1.2990    0.0000 C   0  0  0  0  0  0  0  0  0  0  0  0
   -0.7500   -3.8971    0.0000 C   0  0  0  0  0  0  0  0  0  0  0  0
   -1.5000   -5.1962    0.0000 C   0  0  0  0  0  0  0  0  0  0  0  0
   -0.7500   -6.4952    0.0000 C   0  0  0  0  0  0  0  0  0  0  0  0
    0.7500   -6.4952    0.0000 C   0  0  0  0  0  0  0  0  0  0  0  0
    1.5000   -5.1962    0.0000 C   0  0  0  0  0  0  0  0  0  0  0  0
    0.7500   -3.8971    0.0000 C   0  0  0  0  0  0  0  0  0  0  0  0
  1  2  2  0
  2  3  1  0
  3  4  2  0
  4  5  1  0
  5  6  2  0
  6  7  1  0
  7  8  2  0
  8  9  1  0
  9 10  2  3
 10 11  1  0
 11 12  2  0
 12 13  1  0
 13 14  2  0
 14 15  1  0
 15 16  1  0
 15 17  2  0
  9 18  1  0
 18 19  2  0
 19 20  1  0
 20 21  2  0
 21 22  1  0
 22 23  2  0
 23  2  1  0
  8  3  1  0
 17 11  1  0
 23 18  1  0
M  END
>  <assay_chembl_id>  (675) 
CHEMBL4275679

>  <assay_description>  (675) 
Inhibition of full length AR transcriptional activity in human LNCAP cells harboring AR2PB-eGFP construct assessed as reduction in R1881-induced secreted PSA level after 72 hrs by fluorescence assay

>  <parent_molecule_chembl_id>  (675) 
CHEMBL4278637

>  <canonical_smiles>  (675) 
O=C1c2ccccc2C(=Cc2cccc(O)c2)c2ccccc21

>  <standard_type>  (675) 
IC50

>  <standard_relation>  (675) 
=

>  <standard_value>  (675) 
350.0

>  <standard_units>  (675) 
nM

>  <target_pref_name>  (675) 
Androgen Receptor

>  <target_chembl_id>  (675) 
CHEMBL1871

>  <target_organism>  (675) 
Homo sapiens

>  <pchembl_median>  (675) 
5.94

$$$$
CHEMBL4441215
     RDKit          2D

 24 26  0  0  0  0  0  0  0  0999 V2000
    3.0000    0.0000    0.0000 C   0  0  0  0  0  0  0  0  0  0  0  0
    1.5000    0.0000    0.0000 C   0  0  0  0  0  0  0  0  0  0  0  0
    0.7500   -1.2990    0.0000 C   0  0  0  0  0  0  0  0  0  0  0  0
   -0.7500   -1.2990    0.0000 C   0  0  0  0  0  0  0  0  0  0  0  0
   -1.5000    0.0000    0.0000 C   0  0  0  0  0  0  0  0  0  0  0  0
   -3.0000    0.0000    0.0000 C   0  0  0  0  0  0  0  0  0  0  0  0
   -3.8817   -1.2135    0.0000 C   0  0  0  0  0  0  0  0  0  0  0  0
   -3.4182   -2.6401    0.0000 C   0  0  0  0  0  0  0  0  0  0  0  0
   -5.3083   -0.7500    0.0000 N   0  0  0  0  0  0  0  0  0  0  0  0
   -5.3083    0.7500    0.0000 O   0  0  0  0  0  0  0  0  0  0  0  0
   -3.8817    1.2135    0.0000 C   0  0  0  0  0  0  0  0  0  0  0  0
   -3.4182    2.6401    0.0000 C   0  0  0  0  0  0  0  0  0  0  0  0
   -0.7500    1.2990    0.0000 C   0  0  0  0  0  0  0  0  0  0  0  0
    0.7500    1.2990    0.0000 C   0  0  0  0  0  0  0  0  0  0  0  0
    1.5000    2.5981    0.0000 N   0  0  0  0  0  0  0  0  0  0  0  0
    0.7500    3.8971    0.0000 C   0  0  0  0  0  0  0  0  0  0  0  0
    1.5000    5.1962    0.0000 C   0  0  0  0  0  0  0  0  0  0  0  0
    0.7500    6.4952    0.0000 C   0  0  0  0  0  0  0  0  0  0  0  0
   -0.7500    6.4952    0.0000 C   0  0  0  0  0  0  0  0  0  0  0  0
   -1.5000    7.7942    0.0000 C   0  0  0  0  0  0  0  0  0  0  0  0
   -2.2500    9.0933    0.0000 N   0  0  0  0  0  0  0  0  0  0  0  0
   -1.5000    5.1962    0.0000 C   0  0  0  0  0  0  0  0  0  0  0  0
   -3.0000    5.1962    0.0000 Cl  0  0  0  0  0  0  0  0  0  0  0  0
   -0.7500    3.8971    0.0000 C   0  0  0  0  0  0  0  0  0  0  0  0
  1  2  1  0
  2  3  2  0
  3  4  1  0
  4  5  2  0
  5  6  1  0
  6  7  1  0
  7  8  1  0
  7  9  2  0
  9 10  1  0
 10 11  1  0
 11 12  1  0
  5 13  1  0
 13 14  2  0
 14 15  1  0
 15 16  1  0
 16 17  2  0
 17 18  1  0
 18 19  2  0
 19 20  1  0
 20 21  3  0
 19 22  1  0
 22 23  1  0
 22 24  2  0
 14  2  1  0
 24 16  1  0
 11  6  2  0
M  END
>  <assay_chembl_id>  (676) 
CHEMBL4348419

>  <assay_description>  (676) 
Competitive displacement of [3H]R1881 from human AR-LBD expressed in LNCaP cells incubated for 24 hrs by scintillation counting method based radioligand competitive binding assay

>  <parent_molecule_chembl_id>  (676) 
CHEMBL4441215

>  <canonical_smiles>  (676) 
Cc1ccc(-c2c(C)noc2C)cc1Nc1ccc(C#N)c(Cl)c1

>  <standard_type>  (676) 
IC50

>  <standard_relation>  (676) 
=

>  <standard_value>  (676) 
641.3

>  <standard_units>  (676) 
nM

>  <target_pref_name>  (676) 
Androgen Receptor

>  <target_chembl_id>  (676) 
CHEMBL1871

>  <target_organism>  (676) 
Homo sapiens

>  <pchembl_median>  (676) 
6.87

$$$$
CHEMBL4463558
     RDKit          2D

 35 41  0  0  0  0  0  0  0  0999 V2000
  -15.4579   -3.8403    0.0000 C   0  0  0  0  0  0  0  0  0  0  0  0
  -13.9579   -3.8403    0.0000 C   0  0  0  0  0  0  0  0  0  0  0  0
  -13.2079   -2.5413    0.0000 O   0  0  0  0  0  0  0  0  0  0  0  0
  -13.2079   -5.1394    0.0000 O   0  0  0  0  0  0  0  0  0  0  0  0
  -11.7079   -5.1394    0.0000 C   0  0  0  0  0  0  0  0  0  0  0  0
  -10.9579   -6.4384    0.0000 C   0  0  0  0  0  0  0  0  0  0  0  0
   -9.4579   -6.4384    0.0000 C   0  0  0  0  0  0  0  0  0  0  0  0
   -8.7079   -5.1394    0.0000 C   0  0  0  0  0  0  0  0  0  0  0  0
   -7.9579   -6.4384    0.0000 C   0  0  0  0  0  0  0  0  0  0  0  0
   -9.4579   -3.8403    0.0000 C   0  0  0  0  0  0  0  0  0  0  0  0
   -8.7079   -2.5413    0.0000 C   0  0  0  0  0  0  0  0  0  0  0  0
   -7.2079   -2.5413    0.0000 C   0  0  0  0  0  0  0  0  0  0  0  0
   -6.4579   -3.8403    0.0000 C   0  0  0  0  0  0  0  0  0  0  0  0
   -4.9579   -3.8403    0.0000 C   0  0  0  0  0  0  0  0  0  0  0  0
   -3.9542   -2.7256    0.0000 C   0  0  0  0  0  0  0  0  0  0  0  0
   -2.5838   -3.3357    0.0000 C   0  0  0  0  0  0  0  0  0  0  0  0
   -2.7406   -4.8275    0.0000 C   0  0  0  0  0  0  0  0  0  0  0  0
   -1.5271   -5.7092    0.0000 C   0  0  0  0  0  0  0  0  0  0  0  0
   -1.6839   -7.2010    0.0000 C   0  0  0  0  0  0  0  0  0  0  0  0
   -0.1568   -5.0991    0.0000 N   0  0  0  0  0  0  0  0  0  0  0  0
   -0.0000   -3.6073    0.0000 C   0  0  0  0  0  0  0  0  0  0  0  0
    1.2135   -2.7256    0.0000 N   0  0  0  0  0  0  0  0  0  0  0  0
    0.7500   -1.2990    0.0000 C   0  0  0  0  0  0  0  0  0  0  0  0
    1.5000    0.0000    0.0000 C   0  0  0  0  0  0  0  0  0  0  0  0
    0.7500    1.2990    0.0000 C   0  0  0  0  0  0  0  0  0  0  0  0
   -0.7500    1.2990    0.0000 C   0  0  0  0  0  0  0  0  0  0  0  0
   -1.5000    0.0000    0.0000 C   0  0  0  0  0  0  0  0  0  0  0  0
   -0.7500   -1.2990    0.0000 C   0  0  0  0  0  0  0  0  0  0  0  0
   -1.2135   -2.7256    0.0000 C   0  0  0  0  0  0  0  0  0  0  0  0
   -4.2079   -5.1394    0.0000 C   0  0  0  0  0  0  0  0  0  0  0  0
   -3.3262   -6.3529    0.0000 C   0  0  0  0  0  0  0  0  0  0  0  0
   -4.9579   -6.4384    0.0000 C   0  0  0  0  0  0  0  0  0  0  0  0
   -6.4579   -6.4384    0.0000 C   0  0  0  0  0  0  0  0  0  0  0  0
   -7.2079   -5.1394    0.0000 C   0  0  0  0  0  0  0  0  0  0  0  0
  -10.9579   -3.8403    0.0000 C   0  0  0  0  0  0  0  0  0  0  0  0
  1  2  1  0
  2  3  2  0
  2  4  1  0
  5  4  1  6
  5  6  1  0
  6  7  1  0
  7  8  1  0
  8  9  1  6
  8 10  1  0
 10 11  2  0
 11 12  1  0
 13 12  1  1
 13 14  1  0
 14 15  1  6
 15 16  1  0
 16 17  2  0
 17 18  1  0
 18 19  1  0
 18 20  2  0
 20 21  1  0
 21 22  1  0
 22 23  1  0
 23 24  2  0
 24 25  1  0
 25 26  2  0
 26 27  1  0
 27 28  2  0
 28 29  1  0
 17 30  1  0
 30 31  1  6
 30 32  1  0
 32 33  1  0
 34 33  1  6
 10 35  1  0
 35  5  1  0
 34  8  1  0
 34 13  1  0
 30 14  1  0
 29 16  1  0
 29 21  2  0
 28 23  1  0
M  END
>  <assay_chembl_id>  (677) 
CHEMBL4354401

>  <assay_description>  (677) 
Inhibition of R1881 induced-AR transcriptional activity in AR-positive human 22Rv1 cells harboring ARE14 construct after 24 hrs by luciferase assay

>  <parent_molecule_chembl_id>  (677) 
CHEMBL4463558

>  <canonical_smiles>  (677) 
CC(=O)O[C@H]1CC[C@@]2(C)C(=CC[C@H]3[C@@H]4Cc5c(c(C)nc6[nH]c7ccccc7c56)[C@@]4(C)CC[C@@H]32)C1

>  <standard_type>  (677) 
IC50

>  <standard_relation>  (677) 
=

>  <standard_value>  (677) 
315.0

>  <standard_units>  (677) 
nM

>  <target_pref_name>  (677) 
Androgen Receptor

>  <target_chembl_id>  (677) 
CHEMBL1871

>  <target_organism>  (677) 
Homo sapiens

>  <pchembl_median>  (677) 
7.44

$$$$
CHEMBL6874
     RDKit          2D

 21 23  0  0  0  0  0  0  0  0999 V2000
    2.6491    0.9642    0.0000 C   0  0  0  0  0  0  0  0  0  0  0  0
    1.5000    0.0000    0.0000 C   0  0  0  0  0  0  0  0  0  0  0  0
    2.6491   -0.9642    0.0000 C   0  0  0  0  0  0  0  0  0  0  0  0
    0.7500   -1.2990    0.0000 C   0  0  0  0  0  0  0  0  0  0  0  0
   -0.7500   -1.2990    0.0000 C   0  0  0  0  0  0  0  0  0  0  0  0
   -1.5000    0.0000    0.0000 C   0  0  0  0  0  0  0  0  0  0  0  0
   -3.0000    0.0000    0.0000 C   0  0  0  0  0  0  0  0  0  0  0  0
   -3.7500    1.2990    0.0000 C   0  0  0  0  0  0  0  0  0  0  0  0
   -5.2500    1.2990    0.0000 C   0  0  0  0  0  0  0  0  0  0  0  0
   -6.0000    0.0000    0.0000 C   0  0  0  0  0  0  0  0  0  0  0  0
   -6.7500   -1.2990    0.0000 F   0  0  0  0  0  0  0  0  0  0  0  0
   -7.2990    0.7500    0.0000 F   0  0  0  0  0  0  0  0  0  0  0  0
   -4.7010   -0.7500    0.0000 F   0  0  0  0  0  0  0  0  0  0  0  0
   -6.0000    2.5981    0.0000 C   0  0  0  0  0  0  0  0  0  0  0  0
   -5.2500    3.8971    0.0000 C   0  0  0  0  0  0  0  0  0  0  0  0
   -6.0000    5.1962    0.0000 O   0  0  0  0  0  0  0  0  0  0  0  0
   -3.7500    3.8971    0.0000 N   0  0  0  0  0  0  0  0  0  0  0  0
   -3.0000    2.5981    0.0000 C   0  0  0  0  0  0  0  0  0  0  0  0
   -1.5000    2.5981    0.0000 C   0  0  0  0  0  0  0  0  0  0  0  0
   -0.7500    1.2990    0.0000 C   0  0  0  0  0  0  0  0  0  0  0  0
    0.7500    1.2990    0.0000 N   0  0  0  0  0  0  0  0  0  0  0  0
  1  2  1  0
  2  3  1  0
  2  4  1  0
  4  5  1  0
  5  6  1  0
  6  7  2  0
  7  8  1  0
  8  9  2  0
  9 10  1  0
 10 11  1  0
 10 12  1  0
 10 13  1  0
  9 14  1  0
 14 15  2  0
 15 16  1  0
 15 17  1  0
 17 18  2  0
 18 19  1  0
 19 20  2  0
 20 21  1  0
 21  2  1  0
 20  6  1  0
 18  8  1  0
M  END
>  <assay_chembl_id>  (678) 
CHEMBL4371127

>  <assay_description>  (678) 
Inhibition of human androgen receptor

>  <parent_molecule_chembl_id>  (678) 
CHEMBL6874

>  <canonical_smiles>  (678) 
CC1(C)CCc2cc3c(C(F)(F)F)cc(O)nc3cc2N1

>  <standard_type>  (678) 
IC50

>  <standard_relation>  (678) 
=

>  <standard_value>  (678) 
27.0

>  <standard_units>  (678) 
nM

>  <target_pref_name>  (678) 
Androgen Receptor

>  <target_chembl_id>  (678) 
CHEMBL1871

>  <target_organism>  (678) 
Homo sapiens

>  <pchembl_median>  (678) 
5.01

$$$$
CHEMBL4447539
     RDKit          2D

 22 24  0  0  0  0  0  0  0  0999 V2000
    2.6491    0.9642    0.0000 C   0  0  0  0  0  0  0  0  0  0  0  0
    1.5000    0.0000    0.0000 C   0  0  0  0  0  0  0  0  0  0  0  0
    2.6491   -0.9642    0.0000 C   0  0  0  0  0  0  0  0  0  0  0  0
    0.7500   -1.2990    0.0000 C   0  0  0  0  0  0  0  0  0  0  0  0
   -0.7500   -1.2990    0.0000 C   0  0  0  0  0  0  0  0  0  0  0  0
   -1.5000    0.0000    0.0000 C   0  0  0  0  0  0  0  0  0  0  0  0
   -3.0000    0.0000    0.0000 C   0  0  0  0  0  0  0  0  0  0  0  0
   -3.7500    1.2990    0.0000 C   0  0  0  0  0  0  0  0  0  0  0  0
   -3.0000    2.5981    0.0000 C   0  0  0  0  0  0  0  0  0  0  0  0
   -1.5000    2.5981    0.0000 C   0  0  0  0  0  0  0  0  0  0  0  0
   -0.7500    1.2990    0.0000 C   0  0  0  0  0  0  0  0  0  0  0  0
    0.7500    1.2990    0.0000 N   0  0  0  0  0  0  0  0  0  0  0  0
   -3.7500    3.8971    0.0000 N   0  0  0  0  0  0  0  0  0  0  0  0
   -5.2500    3.8971    0.0000 C   0  0  0  0  0  0  0  0  0  0  0  0
   -6.0000    5.1962    0.0000 C   0  0  0  0  0  0  0  0  0  0  0  0
   -6.7500    6.4952    0.0000 N   0  0  0  0  0  0  0  0  0  0  0  0
   -6.0000    2.5981    0.0000 C   0  0  0  0  0  0  0  0  0  0  0  0
   -5.2500    1.2990    0.0000 C   0  0  0  0  0  0  0  0  0  0  0  0
   -6.0000    0.0000    0.0000 C   0  0  0  0  0  0  0  0  0  0  0  0
   -6.7500   -1.2990    0.0000 F   0  0  0  0  0  0  0  0  0  0  0  0
   -7.2990    0.7500    0.0000 F   0  0  0  0  0  0  0  0  0  0  0  0
   -4.7010   -0.7500    0.0000 F   0  0  0  0  0  0  0  0  0  0  0  0
  1  2  1  0
  2  3  1  0
  2  4  1  0
  4  5  1  0
  5  6  1  0
  6  7  2  0
  7  8  1  0
  8  9  2  0
  9 10  1  0
 10 11  2  0
 11 12  1  0
  9 13  1  0
 13 14  1  0
 14 15  1  0
 15 16  3  0
 14 17  1  0
 17 18  2  0
 18 19  1  0
 19 20  1  0
 19 21  1  0
 19 22  1  0
 12  2  1  0
 11  6  1  0
 18  8  1  0
M  END
>  <assay_chembl_id>  (679) 
CHEMBL4371127

>  <assay_description>  (679) 
Inhibition of human androgen receptor

>  <parent_molecule_chembl_id>  (679) 
CHEMBL4447539

>  <canonical_smiles>  (679) 
CC1(C)CCc2cc3c(cc2N1)NC(C#N)C=C3C(F)(F)F

>  <standard_type>  (679) 
IC50

>  <standard_relation>  (679) 
=

>  <standard_value>  (679) 
9.0

>  <standard_units>  (679) 
nM

>  <target_pref_name>  (679) 
Androgen Receptor

>  <target_chembl_id>  (679) 
CHEMBL1871

>  <target_organism>  (679) 
Homo sapiens

>  <pchembl_median>  (679) 
7.03

$$$$
CHEMBL4548397
     RDKit          2D

 21 23  0  0  0  0  0  0  0  0999 V2000
    2.6491    0.9642    0.0000 C   0  0  0  0  0  0  0  0  0  0  0  0
    1.5000    0.0000    0.0000 C   0  0  0  0  0  0  0  0  0  0  0  0
    2.6491   -0.9642    0.0000 C   0  0  0  0  0  0  0  0  0  0  0  0
    0.7500   -1.2990    0.0000 C   0  0  0  0  0  0  0  0  0  0  0  0
   -0.7500   -1.2990    0.0000 C   0  0  0  0  0  0  0  0  0  0  0  0
   -1.5000    0.0000    0.0000 C   0  0  0  0  0  0  0  0  0  0  0  0
   -3.0000    0.0000    0.0000 C   0  0  0  0  0  0  0  0  0  0  0  0
   -3.7500    1.2990    0.0000 C   0  0  0  0  0  0  0  0  0  0  0  0
   -3.0000    2.5981    0.0000 C   0  0  0  0  0  0  0  0  0  0  0  0
   -1.5000    2.5981    0.0000 C   0  0  0  0  0  0  0  0  0  0  0  0
   -0.7500    1.2990    0.0000 C   0  0  0  0  0  0  0  0  0  0  0  0
    0.7500    1.2990    0.0000 N   0  0  0  0  0  0  0  0  0  0  0  0
   -3.7500    3.8971    0.0000 N   0  0  0  0  0  0  0  0  0  0  0  0
   -5.2500    3.8971    0.0000 C   0  0  0  0  0  0  0  0  0  0  0  0
   -6.0000    5.1962    0.0000 F   0  0  0  0  0  0  0  0  0  0  0  0
   -6.0000    2.5981    0.0000 C   0  0  0  0  0  0  0  0  0  0  0  0
   -5.2500    1.2990    0.0000 C   0  0  0  0  0  0  0  0  0  0  0  0
   -6.0000    0.0000    0.0000 C   0  0  0  0  0  0  0  0  0  0  0  0
   -6.7500   -1.2990    0.0000 F   0  0  0  0  0  0  0  0  0  0  0  0
   -7.2990    0.7500    0.0000 F   0  0  0  0  0  0  0  0  0  0  0  0
   -4.7010   -0.7500    0.0000 F   0  0  0  0  0  0  0  0  0  0  0  0
  1  2  1  0
  2  3  1  0
  2  4  1  0
  4  5  1  0
  5  6  1  0
  6  7  2  0
  7  8  1  0
  8  9  2  0
  9 10  1  0
 10 11  2  0
 11 12  1  0
  9 13  1  0
 13 14  1  0
 14 15  1  0
 14 16  1  0
 16 17  2  0
 17 18  1  0
 18 19  1  0
 18 20  1  0
 18 21  1  0
 12  2  1  0
 11  6  1  0
 17  8  1  0
M  END
>  <assay_chembl_id>  (680) 
CHEMBL4371127

>  <assay_description>  (680) 
Inhibition of human androgen receptor

>  <parent_molecule_chembl_id>  (680) 
CHEMBL4548397

>  <canonical_smiles>  (680) 
CC1(C)CCc2cc3c(cc2N1)NC(F)C=C3C(F)(F)F

>  <standard_type>  (680) 
IC50

>  <standard_relation>  (680) 
=

>  <standard_value>  (680) 
22.0

>  <standard_units>  (680) 
nM

>  <target_pref_name>  (680) 
Androgen Receptor

>  <target_chembl_id>  (680) 
CHEMBL1871

>  <target_organism>  (680) 
Homo sapiens

>  <pchembl_median>  (680) 
6.0

$$$$
CHEMBL1738889
     RDKit          2D

 28 29  0  0  0  0  0  0  0  0999 V2000
    2.2500   -6.4952    0.0000 C   0  0  0  0  0  0  0  0  0  0  0  0
    1.5000   -5.1962    0.0000 C   0  0  0  0  0  0  0  0  0  0  0  0
    0.2010   -5.9462    0.0000 O   0  0  0  0  0  0  0  0  0  0  0  0
    0.7500   -3.8971    0.0000 C   0  0  0  0  0  0  0  0  0  0  0  0
    1.5000   -2.5981    0.0000 O   0  0  0  0  0  0  0  0  0  0  0  0
    0.7500   -1.2990    0.0000 C   0  0  0  0  0  0  0  0  0  0  0  0
    1.5000    0.0000    0.0000 C   0  0  0  0  0  0  0  0  0  0  0  0
    0.7500    1.2990    0.0000 C   0  0  0  0  0  0  0  0  0  0  0  0
   -0.7500    1.2990    0.0000 C   0  0  0  0  0  0  0  0  0  0  0  0
   -1.5000    2.5981    0.0000 C   0  0  0  0  0  0  0  0  0  0  0  0
   -2.2500    3.8971    0.0000 N   0  0  0  0  0  0  0  0  0  0  0  0
   -1.5000    0.0000    0.0000 C   0  0  0  0  0  0  0  0  0  0  0  0
   -0.7500   -1.2990    0.0000 C   0  0  0  0  0  0  0  0  0  0  0  0
    2.7990   -4.4462    0.0000 C   0  0  0  0  0  0  0  0  0  0  0  0
    2.7990   -2.9462    0.0000 O   0  0  0  0  0  0  0  0  0  0  0  0
    4.0981   -5.1962    0.0000 N   0  0  0  0  0  0  0  0  0  0  0  0
    5.3971   -4.4462    0.0000 C   0  0  0  0  0  0  0  0  0  0  0  0
    6.6962   -5.1962    0.0000 C   0  0  0  0  0  0  0  0  0  0  0  0
    7.9952   -4.4462    0.0000 C   0  0  0  0  0  0  0  0  0  0  0  0
    7.9952   -2.9462    0.0000 C   0  0  0  0  0  0  0  0  0  0  0  0
    9.2942   -2.1962    0.0000 C   0  0  0  0  0  0  0  0  0  0  0  0
   10.5933   -1.4462    0.0000 N   0  0  0  0  0  0  0  0  0  0  0  0
    6.6962   -2.1962    0.0000 C   0  0  0  0  0  0  0  0  0  0  0  0
    6.6962   -0.6962    0.0000 C   0  0  0  0  0  0  0  0  0  0  0  0
    6.6962    0.8038    0.0000 F   0  0  0  0  0  0  0  0  0  0  0  0
    5.1962   -0.6962    0.0000 F   0  0  0  0  0  0  0  0  0  0  0  0
    8.1962   -0.6962    0.0000 F   0  0  0  0  0  0  0  0  0  0  0  0
    5.3971   -2.9462    0.0000 C   0  0  0  0  0  0  0  0  0  0  0  0
  2  1  1  6
  2  3  1  0
  2  4  1  0
  4  5  1  0
  5  6  1  0
  6  7  2  0
  7  8  1  0
  8  9  2  0
  9 10  1  0
 10 11  3  0
  9 12  1  0
 12 13  2  0
  2 14  1  0
 14 15  2  0
 14 16  1  0
 16 17  1  0
 17 18  2  0
 18 19  1  0
 19 20  2  0
 20 21  1  0
 21 22  3  0
 20 23  1  0
 23 24  1  0
 24 25  1  0
 24 26  1  0
 24 27  1  0
 23 28  2  0
 13  6  1  0
 28 17  1  0
M  END
>  <assay_chembl_id>  (681) 
CHEMBL4411916

>  <assay_description>  (681) 
Antagonist activity at human androgen receptor expressed in HEK293 cells assessed as inhibition of R1881-induced receptor transactivation after 24 hrs by luciferase reporter gene assay

>  <parent_molecule_chembl_id>  (681) 
CHEMBL1738889

>  <canonical_smiles>  (681) 
C[C@](O)(COc1ccc(C#N)cc1)C(=O)Nc1ccc(C#N)c(C(F)(F)F)c1

>  <standard_type>  (681) 
IC50

>  <standard_relation>  (681) 
=

>  <standard_value>  (681) 
3.8

>  <standard_units>  (681) 
nM

>  <target_pref_name>  (681) 
Androgen Receptor

>  <target_chembl_id>  (681) 
CHEMBL1871

>  <target_organism>  (681) 
Homo sapiens

>  <pchembl_median>  (681) 
4.4

$$$$
CHEMBL4539953
     RDKit          2D

 32 35  0  0  0  0  0  0  0  0999 V2000
    3.7923    3.2638    0.0000 C   0  0  0  0  0  0  0  0  0  0  0  0
    2.3250    2.9520    0.0000 C   0  0  0  0  0  0  0  0  0  0  0  0
    2.6369    1.4848    0.0000 O   0  0  0  0  0  0  0  0  0  0  0  0
    0.8578    2.6401    0.0000 C   0  0  0  0  0  0  0  0  0  0  0  0
    0.3943    1.2135    0.0000 N   0  0  0  0  0  0  0  0  0  0  0  0
    1.2760    0.0000    0.0000 C   0  0  0  0  0  0  0  0  0  0  0  0
    0.3943   -1.2135    0.0000 C   0  0  0  0  0  0  0  0  0  0  0  0
   -1.0323   -0.7500    0.0000 C   0  0  0  0  0  0  0  0  0  0  0  0
   -2.3313   -1.5000    0.0000 C   0  0  0  0  0  0  0  0  0  0  0  0
   -3.6304   -0.7500    0.0000 C   0  0  0  0  0  0  0  0  0  0  0  0
   -4.9294   -1.5000    0.0000 F   0  0  0  0  0  0  0  0  0  0  0  0
   -3.6304    0.7500    0.0000 C   0  0  0  0  0  0  0  0  0  0  0  0
   -4.9294    1.5000    0.0000 C   0  0  0  0  0  0  0  0  0  0  0  0
   -4.9294    3.0000    0.0000 C   0  0  0  0  0  0  0  0  0  0  0  0
   -6.2284    3.7500    0.0000 C   0  0  0  0  0  0  0  0  0  0  0  0
   -7.5275    3.0000    0.0000 C   0  0  0  0  0  0  0  0  0  0  0  0
   -7.5275    1.5000    0.0000 C   0  0  0  0  0  0  0  0  0  0  0  0
   -6.2284    0.7500    0.0000 C   0  0  0  0  0  0  0  0  0  0  0  0
   -2.3313    1.5000    0.0000 C   0  0  0  0  0  0  0  0  0  0  0  0
   -1.0323    0.7500    0.0000 C   0  0  0  0  0  0  0  0  0  0  0  0
    2.0132    4.4192    0.0000 C   0  0  0  0  0  0  0  0  0  0  0  0
    0.5866    4.8827    0.0000 O   0  0  0  0  0  0  0  0  0  0  0  0
    3.1279    5.4229    0.0000 N   0  0  0  0  0  0  0  0  0  0  0  0
    2.8160    6.8901    0.0000 C   0  0  0  0  0  0  0  0  0  0  0  0
    1.3894    7.3536    0.0000 C   0  0  0  0  0  0  0  0  0  0  0  0
    1.0776    8.8209    0.0000 C   0  0  0  0  0  0  0  0  0  0  0  0
    2.1923    9.8246    0.0000 C   0  0  0  0  0  0  0  0  0  0  0  0
    1.8804   11.2918    0.0000 C   0  0  0  0  0  0  0  0  0  0  0  0
    1.5686   12.7590    0.0000 N   0  0  0  0  0  0  0  0  0  0  0  0
    3.6189    9.3610    0.0000 C   0  0  0  0  0  0  0  0  0  0  0  0
    4.7336   10.3647    0.0000 Cl  0  0  0  0  0  0  0  0  0  0  0  0
    3.9307    7.8938    0.0000 C   0  0  0  0  0  0  0  0  0  0  0  0
  2  1  1  6
  2  3  1  0
  2  4  1  0
  4  5  1  0
  5  6  1  0
  6  7  1  0
  7  8  1  0
  8  9  2  0
  9 10  1  0
 10 11  1  0
 10 12  2  0
 12 13  1  0
 13 14  2  0
 14 15  1  0
 15 16  2  0
 16 17  1  0
 17 18  2  0
 12 19  1  0
 19 20  2  0
  2 21  1  0
 21 22  2  0
 21 23  1  0
 23 24  1  0
 24 25  2  0
 25 26  1  0
 26 27  2  0
 27 28  1  0
 28 29  3  0
 27 30  1  0
 30 31  1  0
 30 32  2  0
 20  5  1  0
 32 24  1  0
 20  8  1  0
 18 13  1  0
M  END
>  <assay_chembl_id>  (682) 
CHEMBL4411916

>  <assay_description>  (682) 
Antagonist activity at human androgen receptor expressed in HEK293 cells assessed as inhibition of R1881-induced receptor transactivation after 24 hrs by luciferase reporter gene assay

>  <parent_molecule_chembl_id>  (682) 
CHEMBL4539953

>  <canonical_smiles>  (682) 
C[C@](O)(CN1CCc2cc(F)c(-c3ccccc3)cc21)C(=O)Nc1ccc(C#N)c(Cl)c1

>  <standard_type>  (682) 
IC50

>  <standard_relation>  (682) 
=

>  <standard_value>  (682) 
244.0

>  <standard_units>  (682) 
nM

>  <target_pref_name>  (682) 
Androgen Receptor

>  <target_chembl_id>  (682) 
CHEMBL1871

>  <target_organism>  (682) 
Homo sapiens

>  <pchembl_median>  (682) 
5.28

$$$$
CHEMBL4521365
     RDKit          2D

 27 29  0  0  0  0  0  0  0  0999 V2000
    3.7923    3.2638    0.0000 C   0  0  0  0  0  0  0  0  0  0  0  0
    2.3250    2.9520    0.0000 C   0  0  0  0  0  0  0  0  0  0  0  0
    2.0132    4.4192    0.0000 O   0  0  0  0  0  0  0  0  0  0  0  0
    0.8578    2.6401    0.0000 C   0  0  0  0  0  0  0  0  0  0  0  0
   -0.1459    3.7548    0.0000 N   0  0  0  0  0  0  0  0  0  0  0  0
    0.1660    5.2220    0.0000 C   0  0  0  0  0  0  0  0  0  0  0  0
   -1.1330    5.9720    0.0000 C   0  0  0  0  0  0  0  0  0  0  0  0
   -2.2478    4.9684    0.0000 C   0  0  0  0  0  0  0  0  0  0  0  0
   -3.7395    5.1251    0.0000 C   0  0  0  0  0  0  0  0  0  0  0  0
   -4.6212    3.9116    0.0000 C   0  0  0  0  0  0  0  0  0  0  0  0
   -6.1130    4.0684    0.0000 F   0  0  0  0  0  0  0  0  0  0  0  0
   -4.0111    2.5413    0.0000 C   0  0  0  0  0  0  0  0  0  0  0  0
   -4.8928    1.3278    0.0000 F   0  0  0  0  0  0  0  0  0  0  0  0
   -2.5193    2.3845    0.0000 C   0  0  0  0  0  0  0  0  0  0  0  0
   -1.6377    3.5980    0.0000 C   0  0  0  0  0  0  0  0  0  0  0  0
    2.6369    1.4848    0.0000 C   0  0  0  0  0  0  0  0  0  0  0  0
    1.5222    0.4811    0.0000 O   0  0  0  0  0  0  0  0  0  0  0  0
    4.0635    1.0212    0.0000 N   0  0  0  0  0  0  0  0  0  0  0  0
    4.3754   -0.4460    0.0000 C   0  0  0  0  0  0  0  0  0  0  0  0
    3.2606   -1.4497    0.0000 C   0  0  0  0  0  0  0  0  0  0  0  0
    3.5725   -2.9169    0.0000 C   0  0  0  0  0  0  0  0  0  0  0  0
    4.9991   -3.3804    0.0000 C   0  0  0  0  0  0  0  0  0  0  0  0
    5.3110   -4.8477    0.0000 C   0  0  0  0  0  0  0  0  0  0  0  0
    5.6228   -6.3149    0.0000 N   0  0  0  0  0  0  0  0  0  0  0  0
    6.1138   -2.3767    0.0000 C   0  0  0  0  0  0  0  0  0  0  0  0
    7.5404   -2.8403    0.0000 Cl  0  0  0  0  0  0  0  0  0  0  0  0
    5.8019   -0.9095    0.0000 C   0  0  0  0  0  0  0  0  0  0  0  0
  2  1  1  1
  2  3  1  0
  2  4  1  0
  4  5  1  0
  5  6  1  0
  6  7  1  0
  7  8  1  0
  8  9  2  0
  9 10  1  0
 10 11  1  0
 10 12  2  0
 12 13  1  0
 12 14  1  0
 14 15  2  0
  2 16  1  0
 16 17  2  0
 16 18  1  0
 18 19  1  0
 19 20  2  0
 20 21  1  0
 21 22  2  0
 22 23  1  0
 23 24  3  0
 22 25  1  0
 25 26  1  0
 25 27  2  0
 15  5  1  0
 27 19  1  0
 15  8  1  0
M  END
>  <assay_chembl_id>  (683) 
CHEMBL4411916

>  <assay_description>  (683) 
Antagonist activity at human androgen receptor expressed in HEK293 cells assessed as inhibition of R1881-induced receptor transactivation after 24 hrs by luciferase reporter gene assay

>  <parent_molecule_chembl_id>  (683) 
CHEMBL4521365

>  <canonical_smiles>  (683) 
C[C@](O)(CN1CCc2cc(F)c(F)cc21)C(=O)Nc1ccc(C#N)c(Cl)c1

>  <standard_type>  (683) 
IC50

>  <standard_relation>  (683) 
=

>  <standard_value>  (683) 
32.0

>  <standard_units>  (683) 
nM

>  <target_pref_name>  (683) 
Androgen Receptor

>  <target_chembl_id>  (683) 
CHEMBL1871

>  <target_organism>  (683) 
Homo sapiens

>  <pchembl_median>  (683) 
5.02

$$$$
CHEMBL4527176
     RDKit          2D

 26 28  0  0  0  0  0  0  0  0999 V2000
   -3.2638   -6.1236    0.0000 C   0  0  0  0  0  0  0  0  0  0  0  0
   -2.9520   -4.6564    0.0000 C   0  0  0  0  0  0  0  0  0  0  0  0
   -4.4192   -4.3445    0.0000 O   0  0  0  0  0  0  0  0  0  0  0  0
   -2.6401   -3.1891    0.0000 C   0  0  0  0  0  0  0  0  0  0  0  0
   -3.7548   -2.1855    0.0000 N   0  0  0  0  0  0  0  0  0  0  0  0
   -5.2220   -2.4973    0.0000 C   0  0  0  0  0  0  0  0  0  0  0  0
   -5.9720   -1.1983    0.0000 C   0  0  0  0  0  0  0  0  0  0  0  0
   -4.9684   -0.0836    0.0000 C   0  0  0  0  0  0  0  0  0  0  0  0
   -5.1251    1.4082    0.0000 C   0  0  0  0  0  0  0  0  0  0  0  0
   -3.9116    2.2899    0.0000 C   0  0  0  0  0  0  0  0  0  0  0  0
   -2.5413    1.6798    0.0000 C   0  0  0  0  0  0  0  0  0  0  0  0
   -1.3278    2.5615    0.0000 F   0  0  0  0  0  0  0  0  0  0  0  0
   -2.3845    0.1880    0.0000 C   0  0  0  0  0  0  0  0  0  0  0  0
   -3.5980   -0.6937    0.0000 C   0  0  0  0  0  0  0  0  0  0  0  0
   -1.4848   -4.9682    0.0000 C   0  0  0  0  0  0  0  0  0  0  0  0
   -0.4811   -3.8535    0.0000 O   0  0  0  0  0  0  0  0  0  0  0  0
   -1.0212   -6.3948    0.0000 N   0  0  0  0  0  0  0  0  0  0  0  0
    0.4460   -6.7067    0.0000 C   0  0  0  0  0  0  0  0  0  0  0  0
    0.9095   -8.1333    0.0000 C   0  0  0  0  0  0  0  0  0  0  0  0
    2.3767   -8.4451    0.0000 C   0  0  0  0  0  0  0  0  0  0  0  0
    3.3804   -7.3304    0.0000 C   0  0  0  0  0  0  0  0  0  0  0  0
    4.8477   -7.6423    0.0000 C   0  0  0  0  0  0  0  0  0  0  0  0
    6.3149   -7.9542    0.0000 N   0  0  0  0  0  0  0  0  0  0  0  0
    2.9169   -5.9038    0.0000 C   0  0  0  0  0  0  0  0  0  0  0  0
    3.9206   -4.7891    0.0000 Cl  0  0  0  0  0  0  0  0  0  0  0  0
    1.4497   -5.5920    0.0000 C   0  0  0  0  0  0  0  0  0  0  0  0
  2  1  1  6
  2  3  1  0
  2  4  1  0
  4  5  1  0
  5  6  1  0
  6  7  1  0
  7  8  1  0
  8  9  2  0
  9 10  1  0
 10 11  2  0
 11 12  1  0
 11 13  1  0
 13 14  2  0
  2 15  1  0
 15 16  2  0
 15 17  1  0
 17 18  1  0
 18 19  2  0
 19 20  1  0
 20 21  2  0
 21 22  1  0
 22 23  3  0
 21 24  1  0
 24 25  1  0
 24 26  2  0
 14  5  1  0
 26 18  1  0
 14  8  1  0
M  END
>  <assay_chembl_id>  (684) 
CHEMBL4411916

>  <assay_description>  (684) 
Antagonist activity at human androgen receptor expressed in HEK293 cells assessed as inhibition of R1881-induced receptor transactivation after 24 hrs by luciferase reporter gene assay

>  <parent_molecule_chembl_id>  (684) 
CHEMBL4527176

>  <canonical_smiles>  (684) 
C[C@](O)(CN1CCc2ccc(F)cc21)C(=O)Nc1ccc(C#N)c(Cl)c1

>  <standard_type>  (684) 
IC50

>  <standard_relation>  (684) 
=

>  <standard_value>  (684) 
37.0

>  <standard_units>  (684) 
nM

>  <target_pref_name>  (684) 
Androgen Receptor

>  <target_chembl_id>  (684) 
CHEMBL1871

>  <target_organism>  (684) 
Homo sapiens

>  <pchembl_median>  (684) 
6.29

$$$$
CHEMBL4449952
     RDKit          2D

 26 28  0  0  0  0  0  0  0  0999 V2000
   -3.2638   -6.1236    0.0000 C   0  0  0  0  0  0  0  0  0  0  0  0
   -2.9520   -4.6564    0.0000 C   0  0  0  0  0  0  0  0  0  0  0  0
   -4.4192   -4.3445    0.0000 O   0  0  0  0  0  0  0  0  0  0  0  0
   -2.6401   -3.1891    0.0000 C   0  0  0  0  0  0  0  0  0  0  0  0
   -3.7548   -2.1855    0.0000 N   0  0  0  0  0  0  0  0  0  0  0  0
   -5.2220   -2.4973    0.0000 C   0  0  0  0  0  0  0  0  0  0  0  0
   -5.9720   -1.1983    0.0000 C   0  0  0  0  0  0  0  0  0  0  0  0
   -4.9684   -0.0836    0.0000 C   0  0  0  0  0  0  0  0  0  0  0  0
   -5.1251    1.4082    0.0000 C   0  0  0  0  0  0  0  0  0  0  0  0
   -3.9116    2.2899    0.0000 C   0  0  0  0  0  0  0  0  0  0  0  0
   -4.0684    3.7817    0.0000 Br  0  0  0  0  0  0  0  0  0  0  0  0
   -2.5413    1.6798    0.0000 C   0  0  0  0  0  0  0  0  0  0  0  0
   -2.3845    0.1880    0.0000 C   0  0  0  0  0  0  0  0  0  0  0  0
   -3.5980   -0.6937    0.0000 C   0  0  0  0  0  0  0  0  0  0  0  0
   -1.4848   -4.9682    0.0000 C   0  0  0  0  0  0  0  0  0  0  0  0
   -0.4811   -3.8535    0.0000 O   0  0  0  0  0  0  0  0  0  0  0  0
   -1.0212   -6.3948    0.0000 N   0  0  0  0  0  0  0  0  0  0  0  0
    0.4460   -6.7067    0.0000 C   0  0  0  0  0  0  0  0  0  0  0  0
    0.9095   -8.1333    0.0000 C   0  0  0  0  0  0  0  0  0  0  0  0
    2.3767   -8.4451    0.0000 C   0  0  0  0  0  0  0  0  0  0  0  0
    3.3804   -7.3304    0.0000 C   0  0  0  0  0  0  0  0  0  0  0  0
    4.8477   -7.6423    0.0000 C   0  0  0  0  0  0  0  0  0  0  0  0
    6.3149   -7.9542    0.0000 N   0  0  0  0  0  0  0  0  0  0  0  0
    2.9169   -5.9038    0.0000 C   0  0  0  0  0  0  0  0  0  0  0  0
    3.9206   -4.7891    0.0000 Cl  0  0  0  0  0  0  0  0  0  0  0  0
    1.4497   -5.5920    0.0000 C   0  0  0  0  0  0  0  0  0  0  0  0
  2  1  1  6
  2  3  1  0
  2  4  1  0
  4  5  1  0
  5  6  1  0
  6  7  1  0
  7  8  1  0
  8  9  2  0
  9 10  1  0
 10 11  1  0
 10 12  2  0
 12 13  1  0
 13 14  2  0
  2 15  1  0
 15 16  2  0
 15 17  1  0
 17 18  1  0
 18 19  2  0
 19 20  1  0
 20 21  2  0
 21 22  1  0
 22 23  3  0
 21 24  1  0
 24 25  1  0
 24 26  2  0
 14  5  1  0
 26 18  1  0
 14  8  1  0
M  END
>  <assay_chembl_id>  (685) 
CHEMBL4411916

>  <assay_description>  (685) 
Antagonist activity at human androgen receptor expressed in HEK293 cells assessed as inhibition of R1881-induced receptor transactivation after 24 hrs by luciferase reporter gene assay

>  <parent_molecule_chembl_id>  (685) 
CHEMBL4449952

>  <canonical_smiles>  (685) 
C[C@](O)(CN1CCc2cc(Br)ccc21)C(=O)Nc1ccc(C#N)c(Cl)c1

>  <standard_type>  (685) 
IC50

>  <standard_relation>  (685) 
=

>  <standard_value>  (685) 
835.0

>  <standard_units>  (685) 
nM

>  <target_pref_name>  (685) 
Androgen Receptor

>  <target_chembl_id>  (685) 
CHEMBL1871

>  <target_organism>  (685) 
Homo sapiens

>  <pchembl_median>  (685) 
5.21

$$$$
CHEMBL4542153
     RDKit          2D

 26 28  0  0  0  0  0  0  0  0999 V2000
   -3.2638   -6.1236    0.0000 C   0  0  0  0  0  0  0  0  0  0  0  0
   -2.9520   -4.6564    0.0000 C   0  0  0  0  0  0  0  0  0  0  0  0
   -4.4192   -4.3445    0.0000 O   0  0  0  0  0  0  0  0  0  0  0  0
   -2.6401   -3.1891    0.0000 C   0  0  0  0  0  0  0  0  0  0  0  0
   -3.7548   -2.1855    0.0000 N   0  0  0  0  0  0  0  0  0  0  0  0
   -5.2220   -2.4973    0.0000 C   0  0  0  0  0  0  0  0  0  0  0  0
   -5.9720   -1.1983    0.0000 C   0  0  0  0  0  0  0  0  0  0  0  0
   -4.9684   -0.0836    0.0000 C   0  0  0  0  0  0  0  0  0  0  0  0
   -5.1251    1.4082    0.0000 C   0  0  0  0  0  0  0  0  0  0  0  0
   -3.9116    2.2899    0.0000 C   0  0  0  0  0  0  0  0  0  0  0  0
   -4.0684    3.7817    0.0000 F   0  0  0  0  0  0  0  0  0  0  0  0
   -2.5413    1.6798    0.0000 C   0  0  0  0  0  0  0  0  0  0  0  0
   -2.3845    0.1880    0.0000 C   0  0  0  0  0  0  0  0  0  0  0  0
   -3.5980   -0.6937    0.0000 C   0  0  0  0  0  0  0  0  0  0  0  0
   -1.4848   -4.9682    0.0000 C   0  0  0  0  0  0  0  0  0  0  0  0
   -0.4811   -3.8535    0.0000 O   0  0  0  0  0  0  0  0  0  0  0  0
   -1.0212   -6.3948    0.0000 N   0  0  0  0  0  0  0  0  0  0  0  0
    0.4460   -6.7067    0.0000 C   0  0  0  0  0  0  0  0  0  0  0  0
    0.9095   -8.1333    0.0000 C   0  0  0  0  0  0  0  0  0  0  0  0
    2.3767   -8.4451    0.0000 C   0  0  0  0  0  0  0  0  0  0  0  0
    3.3804   -7.3304    0.0000 C   0  0  0  0  0  0  0  0  0  0  0  0
    4.8477   -7.6423    0.0000 C   0  0  0  0  0  0  0  0  0  0  0  0
    6.3149   -7.9542    0.0000 N   0  0  0  0  0  0  0  0  0  0  0  0
    2.9169   -5.9038    0.0000 C   0  0  0  0  0  0  0  0  0  0  0  0
    3.9206   -4.7891    0.0000 Cl  0  0  0  0  0  0  0  0  0  0  0  0
    1.4497   -5.5920    0.0000 C   0  0  0  0  0  0  0  0  0  0  0  0
  2  1  1  6
  2  3  1  0
  2  4  1  0
  4  5  1  0
  5  6  1  0
  6  7  1  0
  7  8  1  0
  8  9  2  0
  9 10  1  0
 10 11  1  0
 10 12  2  0
 12 13  1  0
 13 14  2  0
  2 15  1  0
 15 16  2  0
 15 17  1  0
 17 18  1  0
 18 19  2  0
 19 20  1  0
 20 21  2  0
 21 22  1  0
 22 23  3  0
 21 24  1  0
 24 25  1  0
 24 26  2  0
 14  5  1  0
 26 18  1  0
 14  8  1  0
M  END
>  <assay_chembl_id>  (686) 
CHEMBL4411916

>  <assay_description>  (686) 
Antagonist activity at human androgen receptor expressed in HEK293 cells assessed as inhibition of R1881-induced receptor transactivation after 24 hrs by luciferase reporter gene assay

>  <parent_molecule_chembl_id>  (686) 
CHEMBL4542153

>  <canonical_smiles>  (686) 
C[C@](O)(CN1CCc2cc(F)ccc21)C(=O)Nc1ccc(C#N)c(Cl)c1

>  <standard_type>  (686) 
IC50

>  <standard_relation>  (686) 
=

>  <standard_value>  (686) 
130.0

>  <standard_units>  (686) 
nM

>  <target_pref_name>  (686) 
Androgen Receptor

>  <target_chembl_id>  (686) 
CHEMBL1871

>  <target_organism>  (686) 
Homo sapiens

>  <pchembl_median>  (686) 
7.36

$$$$
CHEMBL4527241
     RDKit          2D

 26 28  0  0  0  0  0  0  0  0999 V2000
   -3.2638   -6.1236    0.0000 C   0  0  0  0  0  0  0  0  0  0  0  0
   -2.9520   -4.6564    0.0000 C   0  0  0  0  0  0  0  0  0  0  0  0
   -4.4192   -4.3445    0.0000 O   0  0  0  0  0  0  0  0  0  0  0  0
   -2.6401   -3.1891    0.0000 C   0  0  0  0  0  0  0  0  0  0  0  0
   -3.7548   -2.1855    0.0000 N   0  0  0  0  0  0  0  0  0  0  0  0
   -5.2220   -2.4973    0.0000 C   0  0  0  0  0  0  0  0  0  0  0  0
   -5.9720   -1.1983    0.0000 C   0  0  0  0  0  0  0  0  0  0  0  0
   -4.9684   -0.0836    0.0000 C   0  0  0  0  0  0  0  0  0  0  0  0
   -5.1251    1.4082    0.0000 C   0  0  0  0  0  0  0  0  0  0  0  0
   -6.4955    2.0183    0.0000 F   0  0  0  0  0  0  0  0  0  0  0  0
   -3.9116    2.2899    0.0000 C   0  0  0  0  0  0  0  0  0  0  0  0
   -2.5413    1.6798    0.0000 C   0  0  0  0  0  0  0  0  0  0  0  0
   -2.3845    0.1880    0.0000 C   0  0  0  0  0  0  0  0  0  0  0  0
   -3.5980   -0.6937    0.0000 C   0  0  0  0  0  0  0  0  0  0  0  0
   -1.4848   -4.9682    0.0000 C   0  0  0  0  0  0  0  0  0  0  0  0
   -0.4811   -3.8535    0.0000 O   0  0  0  0  0  0  0  0  0  0  0  0
   -1.0212   -6.3948    0.0000 N   0  0  0  0  0  0  0  0  0  0  0  0
    0.4460   -6.7067    0.0000 C   0  0  0  0  0  0  0  0  0  0  0  0
    0.9095   -8.1333    0.0000 C   0  0  0  0  0  0  0  0  0  0  0  0
    2.3767   -8.4451    0.0000 C   0  0  0  0  0  0  0  0  0  0  0  0
    3.3804   -7.3304    0.0000 C   0  0  0  0  0  0  0  0  0  0  0  0
    4.8477   -7.6423    0.0000 C   0  0  0  0  0  0  0  0  0  0  0  0
    6.3149   -7.9542    0.0000 N   0  0  0  0  0  0  0  0  0  0  0  0
    2.9169   -5.9038    0.0000 C   0  0  0  0  0  0  0  0  0  0  0  0
    3.9206   -4.7891    0.0000 Cl  0  0  0  0  0  0  0  0  0  0  0  0
    1.4497   -5.5920    0.0000 C   0  0  0  0  0  0  0  0  0  0  0  0
  2  1  1  6
  2  3  1  0
  2  4  1  0
  4  5  1  0
  5  6  1  0
  6  7  1  0
  7  8  1  0
  8  9  2  0
  9 10  1  0
  9 11  1  0
 11 12  2  0
 12 13  1  0
 13 14  2  0
  2 15  1  0
 15 16  2  0
 15 17  1  0
 17 18  1  0
 18 19  2  0
 19 20  1  0
 20 21  2  0
 21 22  1  0
 22 23  3  0
 21 24  1  0
 24 25  1  0
 24 26  2  0
 14  5  1  0
 26 18  1  0
 14  8  1  0
M  END
>  <assay_chembl_id>  (687) 
CHEMBL4411916

>  <assay_description>  (687) 
Antagonist activity at human androgen receptor expressed in HEK293 cells assessed as inhibition of R1881-induced receptor transactivation after 24 hrs by luciferase reporter gene assay

>  <parent_molecule_chembl_id>  (687) 
CHEMBL4527241

>  <canonical_smiles>  (687) 
C[C@](O)(CN1CCc2c(F)cccc21)C(=O)Nc1ccc(C#N)c(Cl)c1

>  <standard_type>  (687) 
IC50

>  <standard_relation>  (687) 
=

>  <standard_value>  (687) 
126.0

>  <standard_units>  (687) 
nM

>  <target_pref_name>  (687) 
Androgen Receptor

>  <target_chembl_id>  (687) 
CHEMBL1871

>  <target_organism>  (687) 
Homo sapiens

>  <pchembl_median>  (687) 
5.16

$$$$
CHEMBL4469605
     RDKit          2D

 30 32  0  0  0  0  0  0  0  0999 V2000
    3.7923    3.2638    0.0000 C   0  0  0  0  0  0  0  0  0  0  0  0
    2.3250    2.9520    0.0000 C   0  0  0  0  0  0  0  0  0  0  0  0
    2.0132    4.4192    0.0000 O   0  0  0  0  0  0  0  0  0  0  0  0
    0.8578    2.6401    0.0000 C   0  0  0  0  0  0  0  0  0  0  0  0
   -0.1459    3.7548    0.0000 N   0  0  0  0  0  0  0  0  0  0  0  0
    0.1660    5.2220    0.0000 C   0  0  0  0  0  0  0  0  0  0  0  0
   -1.1330    5.9720    0.0000 C   0  0  0  0  0  0  0  0  0  0  0  0
   -2.2478    4.9684    0.0000 C   0  0  0  0  0  0  0  0  0  0  0  0
   -3.7395    5.1251    0.0000 C   0  0  0  0  0  0  0  0  0  0  0  0
   -4.6212    3.9116    0.0000 C   0  0  0  0  0  0  0  0  0  0  0  0
   -6.1130    4.0684    0.0000 F   0  0  0  0  0  0  0  0  0  0  0  0
   -4.0111    2.5413    0.0000 C   0  0  0  0  0  0  0  0  0  0  0  0
   -4.8928    1.3278    0.0000 F   0  0  0  0  0  0  0  0  0  0  0  0
   -2.5193    2.3845    0.0000 C   0  0  0  0  0  0  0  0  0  0  0  0
   -1.6377    3.5980    0.0000 C   0  0  0  0  0  0  0  0  0  0  0  0
    2.6369    1.4848    0.0000 C   0  0  0  0  0  0  0  0  0  0  0  0
    1.5222    0.4811    0.0000 O   0  0  0  0  0  0  0  0  0  0  0  0
    4.0635    1.0212    0.0000 N   0  0  0  0  0  0  0  0  0  0  0  0
    4.3754   -0.4460    0.0000 C   0  0  0  0  0  0  0  0  0  0  0  0
    3.2606   -1.4497    0.0000 C   0  0  0  0  0  0  0  0  0  0  0  0
    3.5725   -2.9169    0.0000 C   0  0  0  0  0  0  0  0  0  0  0  0
    4.9991   -3.3804    0.0000 C   0  0  0  0  0  0  0  0  0  0  0  0
    5.3110   -4.8477    0.0000 C   0  0  0  0  0  0  0  0  0  0  0  0
    5.6228   -6.3149    0.0000 N   0  0  0  0  0  0  0  0  0  0  0  0
    6.1138   -2.3767    0.0000 C   0  0  0  0  0  0  0  0  0  0  0  0
    7.5404   -2.8403    0.0000 C   0  0  0  0  0  0  0  0  0  0  0  0
    8.9670   -3.3038    0.0000 F   0  0  0  0  0  0  0  0  0  0  0  0
    8.0039   -1.4137    0.0000 F   0  0  0  0  0  0  0  0  0  0  0  0
    7.0769   -4.2668    0.0000 F   0  0  0  0  0  0  0  0  0  0  0  0
    5.8019   -0.9095    0.0000 C   0  0  0  0  0  0  0  0  0  0  0  0
  2  1  1  1
  2  3  1  0
  2  4  1  0
  4  5  1  0
  5  6  1  0
  6  7  1  0
  7  8  1  0
  8  9  2  0
  9 10  1  0
 10 11  1  0
 10 12  2  0
 12 13  1  0
 12 14  1  0
 14 15  2  0
  2 16  1  0
 16 17  2  0
 16 18  1  0
 18 19  1  0
 19 20  2  0
 20 21  1  0
 21 22  2  0
 22 23  1  0
 23 24  3  0
 22 25  1  0
 25 26  1  0
 26 27  1  0
 26 28  1  0
 26 29  1  0
 25 30  2  0
 15  5  1  0
 30 19  1  0
 15  8  1  0
M  END
>  <assay_chembl_id>  (688) 
CHEMBL4411916

>  <assay_description>  (688) 
Antagonist activity at human androgen receptor expressed in HEK293 cells assessed as inhibition of R1881-induced receptor transactivation after 24 hrs by luciferase reporter gene assay

>  <parent_molecule_chembl_id>  (688) 
CHEMBL4469605

>  <canonical_smiles>  (688) 
C[C@](O)(CN1CCc2cc(F)c(F)cc21)C(=O)Nc1ccc(C#N)c(C(F)(F)F)c1

>  <standard_type>  (688) 
IC50

>  <standard_relation>  (688) 
=

>  <standard_value>  (688) 
101.0

>  <standard_units>  (688) 
nM

>  <target_pref_name>  (688) 
Androgen Receptor

>  <target_chembl_id>  (688) 
CHEMBL1871

>  <target_organism>  (688) 
Homo sapiens

>  <pchembl_median>  (688) 
5.09

$$$$
CHEMBL4436972
     RDKit          2D

 29 31  0  0  0  0  0  0  0  0999 V2000
   -3.2638   -6.1236    0.0000 C   0  0  0  0  0  0  0  0  0  0  0  0
   -2.9520   -4.6564    0.0000 C   0  0  0  0  0  0  0  0  0  0  0  0
   -4.4192   -4.3445    0.0000 O   0  0  0  0  0  0  0  0  0  0  0  0
   -2.6401   -3.1891    0.0000 C   0  0  0  0  0  0  0  0  0  0  0  0
   -3.7548   -2.1855    0.0000 N   0  0  0  0  0  0  0  0  0  0  0  0
   -5.2220   -2.4973    0.0000 C   0  0  0  0  0  0  0  0  0  0  0  0
   -5.9720   -1.1983    0.0000 C   0  0  0  0  0  0  0  0  0  0  0  0
   -4.9684   -0.0836    0.0000 C   0  0  0  0  0  0  0  0  0  0  0  0
   -5.1251    1.4082    0.0000 C   0  0  0  0  0  0  0  0  0  0  0  0
   -3.9116    2.2899    0.0000 C   0  0  0  0  0  0  0  0  0  0  0  0
   -2.5413    1.6798    0.0000 C   0  0  0  0  0  0  0  0  0  0  0  0
   -1.3278    2.5615    0.0000 F   0  0  0  0  0  0  0  0  0  0  0  0
   -2.3845    0.1880    0.0000 C   0  0  0  0  0  0  0  0  0  0  0  0
   -3.5980   -0.6937    0.0000 C   0  0  0  0  0  0  0  0  0  0  0  0
   -1.4848   -4.9682    0.0000 C   0  0  0  0  0  0  0  0  0  0  0  0
   -0.4811   -3.8535    0.0000 O   0  0  0  0  0  0  0  0  0  0  0  0
   -1.0212   -6.3948    0.0000 N   0  0  0  0  0  0  0  0  0  0  0  0
    0.4460   -6.7067    0.0000 C   0  0  0  0  0  0  0  0  0  0  0  0
    0.9095   -8.1333    0.0000 C   0  0  0  0  0  0  0  0  0  0  0  0
    2.3767   -8.4451    0.0000 C   0  0  0  0  0  0  0  0  0  0  0  0
    3.3804   -7.3304    0.0000 C   0  0  0  0  0  0  0  0  0  0  0  0
    4.8477   -7.6423    0.0000 C   0  0  0  0  0  0  0  0  0  0  0  0
    6.3149   -7.9542    0.0000 N   0  0  0  0  0  0  0  0  0  0  0  0
    2.9169   -5.9038    0.0000 C   0  0  0  0  0  0  0  0  0  0  0  0
    3.9206   -4.7891    0.0000 C   0  0  0  0  0  0  0  0  0  0  0  0
    4.9243   -3.6744    0.0000 F   0  0  0  0  0  0  0  0  0  0  0  0
    5.0353   -5.7928    0.0000 F   0  0  0  0  0  0  0  0  0  0  0  0
    2.8059   -3.7854    0.0000 F   0  0  0  0  0  0  0  0  0  0  0  0
    1.4497   -5.5920    0.0000 C   0  0  0  0  0  0  0  0  0  0  0  0
  2  1  1  6
  2  3  1  0
  2  4  1  0
  4  5  1  0
  5  6  1  0
  6  7  1  0
  7  8  1  0
  8  9  2  0
  9 10  1  0
 10 11  2  0
 11 12  1  0
 11 13  1  0
 13 14  2  0
  2 15  1  0
 15 16  2  0
 15 17  1  0
 17 18  1  0
 18 19  2  0
 19 20  1  0
 20 21  2  0
 21 22  1  0
 22 23  3  0
 21 24  1  0
 24 25  1  0
 25 26  1  0
 25 27  1  0
 25 28  1  0
 24 29  2  0
 14  5  1  0
 29 18  1  0
 14  8  1  0
M  END
>  <assay_chembl_id>  (689) 
CHEMBL4411916

>  <assay_description>  (689) 
Antagonist activity at human androgen receptor expressed in HEK293 cells assessed as inhibition of R1881-induced receptor transactivation after 24 hrs by luciferase reporter gene assay

>  <parent_molecule_chembl_id>  (689) 
CHEMBL4436972

>  <canonical_smiles>  (689) 
C[C@](O)(CN1CCc2ccc(F)cc21)C(=O)Nc1ccc(C#N)c(C(F)(F)F)c1

>  <standard_type>  (689) 
IC50

>  <standard_relation>  (689) 
=

>  <standard_value>  (689) 
39.0

>  <standard_units>  (689) 
nM

>  <target_pref_name>  (689) 
Androgen Receptor

>  <target_chembl_id>  (689) 
CHEMBL1871

>  <target_organism>  (689) 
Homo sapiens

>  <pchembl_median>  (689) 
5.32

$$$$
CHEMBL4438211
     RDKit          2D

 29 31  0  0  0  0  0  0  0  0999 V2000
   -3.2638   -6.1236    0.0000 C   0  0  0  0  0  0  0  0  0  0  0  0
   -2.9520   -4.6564    0.0000 C   0  0  0  0  0  0  0  0  0  0  0  0
   -4.4192   -4.3445    0.0000 O   0  0  0  0  0  0  0  0  0  0  0  0
   -2.6401   -3.1891    0.0000 C   0  0  0  0  0  0  0  0  0  0  0  0
   -3.7548   -2.1855    0.0000 N   0  0  0  0  0  0  0  0  0  0  0  0
   -5.2220   -2.4973    0.0000 C   0  0  0  0  0  0  0  0  0  0  0  0
   -5.9720   -1.1983    0.0000 C   0  0  0  0  0  0  0  0  0  0  0  0
   -4.9684   -0.0836    0.0000 C   0  0  0  0  0  0  0  0  0  0  0  0
   -5.1251    1.4082    0.0000 C   0  0  0  0  0  0  0  0  0  0  0  0
   -6.4955    2.0183    0.0000 F   0  0  0  0  0  0  0  0  0  0  0  0
   -3.9116    2.2899    0.0000 C   0  0  0  0  0  0  0  0  0  0  0  0
   -2.5413    1.6798    0.0000 C   0  0  0  0  0  0  0  0  0  0  0  0
   -2.3845    0.1880    0.0000 C   0  0  0  0  0  0  0  0  0  0  0  0
   -3.5980   -0.6937    0.0000 C   0  0  0  0  0  0  0  0  0  0  0  0
   -1.4848   -4.9682    0.0000 C   0  0  0  0  0  0  0  0  0  0  0  0
   -0.4811   -3.8535    0.0000 O   0  0  0  0  0  0  0  0  0  0  0  0
   -1.0212   -6.3948    0.0000 N   0  0  0  0  0  0  0  0  0  0  0  0
    0.4460   -6.7067    0.0000 C   0  0  0  0  0  0  0  0  0  0  0  0
    0.9095   -8.1333    0.0000 C   0  0  0  0  0  0  0  0  0  0  0  0
    2.3767   -8.4451    0.0000 C   0  0  0  0  0  0  0  0  0  0  0  0
    3.3804   -7.3304    0.0000 C   0  0  0  0  0  0  0  0  0  0  0  0
    4.8477   -7.6423    0.0000 C   0  0  0  0  0  0  0  0  0  0  0  0
    6.3149   -7.9542    0.0000 N   0  0  0  0  0  0  0  0  0  0  0  0
    2.9169   -5.9038    0.0000 C   0  0  0  0  0  0  0  0  0  0  0  0
    3.9206   -4.7891    0.0000 C   0  0  0  0  0  0  0  0  0  0  0  0
    4.9243   -3.6744    0.0000 F   0  0  0  0  0  0  0  0  0  0  0  0
    5.0353   -5.7928    0.0000 F   0  0  0  0  0  0  0  0  0  0  0  0
    2.8059   -3.7854    0.0000 F   0  0  0  0  0  0  0  0  0  0  0  0
    1.4497   -5.5920    0.0000 C   0  0  0  0  0  0  0  0  0  0  0  0
  2  1  1  6
  2  3  1  0
  2  4  1  0
  4  5  1  0
  5  6  1  0
  6  7  1  0
  7  8  1  0
  8  9  2  0
  9 10  1  0
  9 11  1  0
 11 12  2  0
 12 13  1  0
 13 14  2  0
  2 15  1  0
 15 16  2  0
 15 17  1  0
 17 18  1  0
 18 19  2  0
 19 20  1  0
 20 21  2  0
 21 22  1  0
 22 23  3  0
 21 24  1  0
 24 25  1  0
 25 26  1  0
 25 27  1  0
 25 28  1  0
 24 29  2  0
 14  5  1  0
 29 18  1  0
 14  8  1  0
M  END
>  <assay_chembl_id>  (690) 
CHEMBL4411916

>  <assay_description>  (690) 
Antagonist activity at human androgen receptor expressed in HEK293 cells assessed as inhibition of R1881-induced receptor transactivation after 24 hrs by luciferase reporter gene assay

>  <parent_molecule_chembl_id>  (690) 
CHEMBL4438211

>  <canonical_smiles>  (690) 
C[C@](O)(CN1CCc2c(F)cccc21)C(=O)Nc1ccc(C#N)c(C(F)(F)F)c1

>  <standard_type>  (690) 
IC50

>  <standard_relation>  (690) 
=

>  <standard_value>  (690) 
59.0

>  <standard_units>  (690) 
nM

>  <target_pref_name>  (690) 
Androgen Receptor

>  <target_chembl_id>  (690) 
CHEMBL1871

>  <target_organism>  (690) 
Homo sapiens

>  <pchembl_median>  (690) 
5.46

$$$$
CHEMBL4443566
     RDKit          2D

 28 30  0  0  0  0  0  0  0  0999 V2000
   -3.2638   -6.1236    0.0000 C   0  0  0  0  0  0  0  0  0  0  0  0
   -2.9520   -4.6564    0.0000 C   0  0  0  0  0  0  0  0  0  0  0  0
   -4.4192   -4.3445    0.0000 O   0  0  0  0  0  0  0  0  0  0  0  0
   -2.6401   -3.1891    0.0000 C   0  0  0  0  0  0  0  0  0  0  0  0
   -3.7548   -2.1855    0.0000 N   0  0  0  0  0  0  0  0  0  0  0  0
   -5.2220   -2.4973    0.0000 C   0  0  0  0  0  0  0  0  0  0  0  0
   -5.9720   -1.1983    0.0000 C   0  0  0  0  0  0  0  0  0  0  0  0
   -4.9684   -0.0836    0.0000 C   0  0  0  0  0  0  0  0  0  0  0  0
   -5.1251    1.4082    0.0000 C   0  0  0  0  0  0  0  0  0  0  0  0
   -3.9116    2.2899    0.0000 C   0  0  0  0  0  0  0  0  0  0  0  0
   -2.5413    1.6798    0.0000 C   0  0  0  0  0  0  0  0  0  0  0  0
   -2.3845    0.1880    0.0000 C   0  0  0  0  0  0  0  0  0  0  0  0
   -3.5980   -0.6937    0.0000 C   0  0  0  0  0  0  0  0  0  0  0  0
   -1.4848   -4.9682    0.0000 C   0  0  0  0  0  0  0  0  0  0  0  0
   -0.4811   -3.8535    0.0000 O   0  0  0  0  0  0  0  0  0  0  0  0
   -1.0212   -6.3948    0.0000 N   0  0  0  0  0  0  0  0  0  0  0  0
    0.4460   -6.7067    0.0000 C   0  0  0  0  0  0  0  0  0  0  0  0
    0.9095   -8.1333    0.0000 C   0  0  0  0  0  0  0  0  0  0  0  0
    2.3767   -8.4451    0.0000 C   0  0  0  0  0  0  0  0  0  0  0  0
    3.3804   -7.3304    0.0000 C   0  0  0  0  0  0  0  0  0  0  0  0
    4.8477   -7.6423    0.0000 C   0  0  0  0  0  0  0  0  0  0  0  0
    6.3149   -7.9542    0.0000 N   0  0  0  0  0  0  0  0  0  0  0  0
    2.9169   -5.9038    0.0000 C   0  0  0  0  0  0  0  0  0  0  0  0
    3.9206   -4.7891    0.0000 C   0  0  0  0  0  0  0  0  0  0  0  0
    4.9243   -3.6744    0.0000 F   0  0  0  0  0  0  0  0  0  0  0  0
    5.0353   -5.7928    0.0000 F   0  0  0  0  0  0  0  0  0  0  0  0
    2.8059   -3.7854    0.0000 F   0  0  0  0  0  0  0  0  0  0  0  0
    1.4497   -5.5920    0.0000 C   0  0  0  0  0  0  0  0  0  0  0  0
  2  1  1  6
  2  3  1  0
  2  4  1  0
  4  5  1  0
  5  6  1  0
  6  7  1  0
  7  8  1  0
  8  9  2  0
  9 10  1  0
 10 11  2  0
 11 12  1  0
 12 13  2  0
  2 14  1  0
 14 15  2  0
 14 16  1  0
 16 17  1  0
 17 18  2  0
 18 19  1  0
 19 20  2  0
 20 21  1  0
 21 22  3  0
 20 23  1  0
 23 24  1  0
 24 25  1  0
 24 26  1  0
 24 27  1  0
 23 28  2  0
 13  5  1  0
 28 17  1  0
 13  8  1  0
M  END
>  <assay_chembl_id>  (691) 
CHEMBL4411916

>  <assay_description>  (691) 
Antagonist activity at human androgen receptor expressed in HEK293 cells assessed as inhibition of R1881-induced receptor transactivation after 24 hrs by luciferase reporter gene assay

>  <parent_molecule_chembl_id>  (691) 
CHEMBL4443566

>  <canonical_smiles>  (691) 
C[C@](O)(CN1CCc2ccccc21)C(=O)Nc1ccc(C#N)c(C(F)(F)F)c1

>  <standard_type>  (691) 
IC50

>  <standard_relation>  (691) 
=

>  <standard_value>  (691) 
142.0

>  <standard_units>  (691) 
nM

>  <target_pref_name>  (691) 
Androgen Receptor

>  <target_chembl_id>  (691) 
CHEMBL1871

>  <target_organism>  (691) 
Homo sapiens

>  <pchembl_median>  (691) 
5.89

$$$$
CHEMBL4451795
     RDKit          2D

 32 35  0  0  0  0  0  0  0  0999 V2000
   -3.2638   -6.1236    0.0000 C   0  0  0  0  0  0  0  0  0  0  0  0
   -2.9520   -4.6564    0.0000 C   0  0  0  0  0  0  0  0  0  0  0  0
   -1.4848   -4.9682    0.0000 O   0  0  0  0  0  0  0  0  0  0  0  0
   -2.6401   -3.1891    0.0000 C   0  0  0  0  0  0  0  0  0  0  0  0
   -1.2135   -2.7256    0.0000 N   0  0  0  0  0  0  0  0  0  0  0  0
    0.0000   -3.6073    0.0000 C   0  0  0  0  0  0  0  0  0  0  0  0
    1.2135   -2.7256    0.0000 C   0  0  0  0  0  0  0  0  0  0  0  0
    2.6401   -3.1891    0.0000 C   0  0  0  0  0  0  0  0  0  0  0  0
    2.9520   -4.6564    0.0000 C   0  0  0  0  0  0  0  0  0  0  0  0
    4.3786   -5.1199    0.0000 C   0  0  0  0  0  0  0  0  0  0  0  0
    5.4933   -4.1162    0.0000 C   0  0  0  0  0  0  0  0  0  0  0  0
    5.1814   -2.6490    0.0000 C   0  0  0  0  0  0  0  0  0  0  0  0
    3.7548   -2.1855    0.0000 C   0  0  0  0  0  0  0  0  0  0  0  0
    0.7500   -1.2990    0.0000 C   0  0  0  0  0  0  0  0  0  0  0  0
    1.5000    0.0000    0.0000 C   0  0  0  0  0  0  0  0  0  0  0  0
    0.7500    1.2990    0.0000 C   0  0  0  0  0  0  0  0  0  0  0  0
    1.5000    2.5981    0.0000 F   0  0  0  0  0  0  0  0  0  0  0  0
   -0.7500    1.2990    0.0000 C   0  0  0  0  0  0  0  0  0  0  0  0
   -1.5000    0.0000    0.0000 C   0  0  0  0  0  0  0  0  0  0  0  0
   -0.7500   -1.2990    0.0000 C   0  0  0  0  0  0  0  0  0  0  0  0
   -4.4192   -4.3445    0.0000 C   0  0  0  0  0  0  0  0  0  0  0  0
   -4.8827   -2.9179    0.0000 O   0  0  0  0  0  0  0  0  0  0  0  0
   -5.4229   -5.4592    0.0000 N   0  0  0  0  0  0  0  0  0  0  0  0
   -6.8901   -5.1474    0.0000 C   0  0  0  0  0  0  0  0  0  0  0  0
   -7.8938   -6.2621    0.0000 C   0  0  0  0  0  0  0  0  0  0  0  0
   -9.3610   -5.9502    0.0000 C   0  0  0  0  0  0  0  0  0  0  0  0
   -9.8246   -4.5236    0.0000 C   0  0  0  0  0  0  0  0  0  0  0  0
  -11.2918   -4.2117    0.0000 C   0  0  0  0  0  0  0  0  0  0  0  0
  -12.7590   -3.8999    0.0000 N   0  0  0  0  0  0  0  0  0  0  0  0
   -8.8209   -3.4089    0.0000 C   0  0  0  0  0  0  0  0  0  0  0  0
   -9.2844   -1.9823    0.0000 Cl  0  0  0  0  0  0  0  0  0  0  0  0
   -7.3536   -3.7208    0.0000 C   0  0  0  0  0  0  0  0  0  0  0  0
  2  1  1  1
  2  3  1  0
  2  4  1  0
  4  5  1  0
  5  6  1  0
  6  7  2  0
  7  8  1  0
  8  9  2  0
  9 10  1  0
 10 11  2  0
 11 12  1  0
 12 13  2  0
  7 14  1  0
 14 15  2  0
 15 16  1  0
 16 17  1  0
 16 18  2  0
 18 19  1  0
 19 20  2  0
  2 21  1  0
 21 22  2  0
 21 23  1  0
 23 24  1  0
 24 25  2  0
 25 26  1  0
 26 27  2  0
 27 28  1  0
 28 29  3  0
 27 30  1  0
 30 31  1  0
 30 32  2  0
 20  5  1  0
 32 24  1  0
 13  8  1  0
 20 14  1  0
M  END
>  <assay_chembl_id>  (692) 
CHEMBL4411916

>  <assay_description>  (692) 
Antagonist activity at human androgen receptor expressed in HEK293 cells assessed as inhibition of R1881-induced receptor transactivation after 24 hrs by luciferase reporter gene assay

>  <parent_molecule_chembl_id>  (692) 
CHEMBL4451795

>  <canonical_smiles>  (692) 
C[C@](O)(Cn1cc(-c2ccccc2)c2cc(F)ccc21)C(=O)Nc1ccc(C#N)c(Cl)c1

>  <standard_type>  (692) 
IC50

>  <standard_relation>  (692) 
=

>  <standard_value>  (692) 
1032.0

>  <standard_units>  (692) 
nM

>  <target_pref_name>  (692) 
Androgen Receptor

>  <target_chembl_id>  (692) 
CHEMBL1871

>  <target_organism>  (692) 
Homo sapiens

>  <pchembl_median>  (692) 
5.69

$$$$
CHEMBL4447959
     RDKit          2D

 32 35  0  0  0  0  0  0  0  0999 V2000
    3.7923    3.2638    0.0000 C   0  0  0  0  0  0  0  0  0  0  0  0
    2.3250    2.9520    0.0000 C   0  0  0  0  0  0  0  0  0  0  0  0
    2.6369    1.4848    0.0000 O   0  0  0  0  0  0  0  0  0  0  0  0
    0.8578    2.6401    0.0000 C   0  0  0  0  0  0  0  0  0  0  0  0
    0.3943    1.2135    0.0000 N   0  0  0  0  0  0  0  0  0  0  0  0
    1.2760    0.0000    0.0000 C   0  0  0  0  0  0  0  0  0  0  0  0
    0.3943   -1.2135    0.0000 C   0  0  0  0  0  0  0  0  0  0  0  0
   -1.0323   -0.7500    0.0000 C   0  0  0  0  0  0  0  0  0  0  0  0
   -2.3313   -1.5000    0.0000 C   0  0  0  0  0  0  0  0  0  0  0  0
   -3.6304   -0.7500    0.0000 C   0  0  0  0  0  0  0  0  0  0  0  0
   -4.9294   -1.5000    0.0000 F   0  0  0  0  0  0  0  0  0  0  0  0
   -3.6304    0.7500    0.0000 C   0  0  0  0  0  0  0  0  0  0  0  0
   -4.9294    1.5000    0.0000 C   0  0  0  0  0  0  0  0  0  0  0  0
   -4.9294    3.0000    0.0000 C   0  0  0  0  0  0  0  0  0  0  0  0
   -6.2284    3.7500    0.0000 C   0  0  0  0  0  0  0  0  0  0  0  0
   -7.5275    3.0000    0.0000 C   0  0  0  0  0  0  0  0  0  0  0  0
   -7.5275    1.5000    0.0000 C   0  0  0  0  0  0  0  0  0  0  0  0
   -6.2284    0.7500    0.0000 C   0  0  0  0  0  0  0  0  0  0  0  0
   -2.3313    1.5000    0.0000 C   0  0  0  0  0  0  0  0  0  0  0  0
   -1.0323    0.7500    0.0000 C   0  0  0  0  0  0  0  0  0  0  0  0
    2.0132    4.4192    0.0000 C   0  0  0  0  0  0  0  0  0  0  0  0
    0.5866    4.8827    0.0000 O   0  0  0  0  0  0  0  0  0  0  0  0
    3.1279    5.4229    0.0000 N   0  0  0  0  0  0  0  0  0  0  0  0
    2.8160    6.8901    0.0000 C   0  0  0  0  0  0  0  0  0  0  0  0
    1.3894    7.3536    0.0000 C   0  0  0  0  0  0  0  0  0  0  0  0
    1.0776    8.8209    0.0000 C   0  0  0  0  0  0  0  0  0  0  0  0
    2.1923    9.8246    0.0000 C   0  0  0  0  0  0  0  0  0  0  0  0
    1.8804   11.2918    0.0000 C   0  0  0  0  0  0  0  0  0  0  0  0
    1.5686   12.7590    0.0000 N   0  0  0  0  0  0  0  0  0  0  0  0
    3.6189    9.3610    0.0000 C   0  0  0  0  0  0  0  0  0  0  0  0
    4.7336   10.3647    0.0000 Cl  0  0  0  0  0  0  0  0  0  0  0  0
    3.9307    7.8938    0.0000 C   0  0  0  0  0  0  0  0  0  0  0  0
  2  1  1  6
  2  3  1  0
  2  4  1  0
  4  5  1  0
  5  6  1  0
  6  7  2  0
  7  8  1  0
  8  9  2  0
  9 10  1  0
 10 11  1  0
 10 12  2  0
 12 13  1  0
 13 14  2  0
 14 15  1  0
 15 16  2  0
 16 17  1  0
 17 18  2  0
 12 19  1  0
 19 20  2  0
  2 21  1  0
 21 22  2  0
 21 23  1  0
 23 24  1  0
 24 25  2  0
 25 26  1  0
 26 27  2  0
 27 28  1  0
 28 29  3  0
 27 30  1  0
 30 31  1  0
 30 32  2  0
 20  5  1  0
 32 24  1  0
 20  8  1  0
 18 13  1  0
M  END
>  <assay_chembl_id>  (693) 
CHEMBL4411916

>  <assay_description>  (693) 
Antagonist activity at human androgen receptor expressed in HEK293 cells assessed as inhibition of R1881-induced receptor transactivation after 24 hrs by luciferase reporter gene assay

>  <parent_molecule_chembl_id>  (693) 
CHEMBL4447959

>  <canonical_smiles>  (693) 
C[C@](O)(Cn1ccc2cc(F)c(-c3ccccc3)cc21)C(=O)Nc1ccc(C#N)c(Cl)c1

>  <standard_type>  (693) 
IC50

>  <standard_relation>  (693) 
=

>  <standard_value>  (693) 
203.0

>  <standard_units>  (693) 
nM

>  <target_pref_name>  (693) 
Androgen Receptor

>  <target_chembl_id>  (693) 
CHEMBL1871

>  <target_organism>  (693) 
Homo sapiens

>  <pchembl_median>  (693) 
7.23

$$$$
CHEMBL4585987
     RDKit          2D

 26 28  0  0  0  0  0  0  0  0999 V2000
   -3.2638   -6.1236    0.0000 C   0  0  0  0  0  0  0  0  0  0  0  0
   -2.9520   -4.6564    0.0000 C   0  0  0  0  0  0  0  0  0  0  0  0
   -4.4192   -4.3445    0.0000 O   0  0  0  0  0  0  0  0  0  0  0  0
   -2.6401   -3.1891    0.0000 C   0  0  0  0  0  0  0  0  0  0  0  0
   -3.7548   -2.1855    0.0000 N   0  0  0  0  0  0  0  0  0  0  0  0
   -5.2220   -2.4973    0.0000 C   0  0  0  0  0  0  0  0  0  0  0  0
   -5.9720   -1.1983    0.0000 C   0  0  0  0  0  0  0  0  0  0  0  0
   -4.9684   -0.0836    0.0000 C   0  0  0  0  0  0  0  0  0  0  0  0
   -5.1251    1.4082    0.0000 C   0  0  0  0  0  0  0  0  0  0  0  0
   -3.9116    2.2899    0.0000 C   0  0  0  0  0  0  0  0  0  0  0  0
   -2.5413    1.6798    0.0000 C   0  0  0  0  0  0  0  0  0  0  0  0
   -2.3845    0.1880    0.0000 C   0  0  0  0  0  0  0  0  0  0  0  0
   -1.0142   -0.4221    0.0000 F   0  0  0  0  0  0  0  0  0  0  0  0
   -3.5980   -0.6937    0.0000 C   0  0  0  0  0  0  0  0  0  0  0  0
   -1.4848   -4.9682    0.0000 C   0  0  0  0  0  0  0  0  0  0  0  0
   -0.4811   -3.8535    0.0000 O   0  0  0  0  0  0  0  0  0  0  0  0
   -1.0212   -6.3948    0.0000 N   0  0  0  0  0  0  0  0  0  0  0  0
    0.4460   -6.7067    0.0000 C   0  0  0  0  0  0  0  0  0  0  0  0
    0.9095   -8.1333    0.0000 C   0  0  0  0  0  0  0  0  0  0  0  0
    2.3767   -8.4451    0.0000 C   0  0  0  0  0  0  0  0  0  0  0  0
    3.3804   -7.3304    0.0000 C   0  0  0  0  0  0  0  0  0  0  0  0
    4.8477   -7.6423    0.0000 C   0  0  0  0  0  0  0  0  0  0  0  0
    6.3149   -7.9542    0.0000 N   0  0  0  0  0  0  0  0  0  0  0  0
    2.9169   -5.9038    0.0000 C   0  0  0  0  0  0  0  0  0  0  0  0
    3.9206   -4.7891    0.0000 Cl  0  0  0  0  0  0  0  0  0  0  0  0
    1.4497   -5.5920    0.0000 C   0  0  0  0  0  0  0  0  0  0  0  0
  2  1  1  6
  2  3  1  0
  2  4  1  0
  4  5  1  0
  5  6  1  0
  6  7  2  0
  7  8  1  0
  8  9  2  0
  9 10  1  0
 10 11  2  0
 11 12  1  0
 12 13  1  0
 12 14  2  0
  2 15  1  0
 15 16  2  0
 15 17  1  0
 17 18  1  0
 18 19  2  0
 19 20  1  0
 20 21  2  0
 21 22  1  0
 22 23  3  0
 21 24  1  0
 24 25  1  0
 24 26  2  0
 14  5  1  0
 26 18  1  0
 14  8  1  0
M  END
>  <assay_chembl_id>  (694) 
CHEMBL4411916

>  <assay_description>  (694) 
Antagonist activity at human androgen receptor expressed in HEK293 cells assessed as inhibition of R1881-induced receptor transactivation after 24 hrs by luciferase reporter gene assay

>  <parent_molecule_chembl_id>  (694) 
CHEMBL4585987

>  <canonical_smiles>  (694) 
C[C@](O)(Cn1ccc2cccc(F)c21)C(=O)Nc1ccc(C#N)c(Cl)c1

>  <standard_type>  (694) 
IC50

>  <standard_relation>  (694) 
=

>  <standard_value>  (694) 
234.0

>  <standard_units>  (694) 
nM

>  <target_pref_name>  (694) 
Androgen Receptor

>  <target_chembl_id>  (694) 
CHEMBL1871

>  <target_organism>  (694) 
Homo sapiens

>  <pchembl_median>  (694) 
5.89

$$$$
CHEMBL4590504
     RDKit          2D

 26 28  0  0  0  0  0  0  0  0999 V2000
   -3.2638   -6.1236    0.0000 C   0  0  0  0  0  0  0  0  0  0  0  0
   -2.9520   -4.6564    0.0000 C   0  0  0  0  0  0  0  0  0  0  0  0
   -4.4192   -4.3445    0.0000 O   0  0  0  0  0  0  0  0  0  0  0  0
   -2.6401   -3.1891    0.0000 C   0  0  0  0  0  0  0  0  0  0  0  0
   -3.7548   -2.1855    0.0000 N   0  0  0  0  0  0  0  0  0  0  0  0
   -5.2220   -2.4973    0.0000 C   0  0  0  0  0  0  0  0  0  0  0  0
   -5.9720   -1.1983    0.0000 C   0  0  0  0  0  0  0  0  0  0  0  0
   -4.9684   -0.0836    0.0000 C   0  0  0  0  0  0  0  0  0  0  0  0
   -5.1251    1.4082    0.0000 C   0  0  0  0  0  0  0  0  0  0  0  0
   -3.9116    2.2899    0.0000 C   0  0  0  0  0  0  0  0  0  0  0  0
   -2.5413    1.6798    0.0000 C   0  0  0  0  0  0  0  0  0  0  0  0
   -1.3278    2.5615    0.0000 F   0  0  0  0  0  0  0  0  0  0  0  0
   -2.3845    0.1880    0.0000 C   0  0  0  0  0  0  0  0  0  0  0  0
   -3.5980   -0.6937    0.0000 C   0  0  0  0  0  0  0  0  0  0  0  0
   -1.4848   -4.9682    0.0000 C   0  0  0  0  0  0  0  0  0  0  0  0
   -0.4811   -3.8535    0.0000 O   0  0  0  0  0  0  0  0  0  0  0  0
   -1.0212   -6.3948    0.0000 N   0  0  0  0  0  0  0  0  0  0  0  0
    0.4460   -6.7067    0.0000 C   0  0  0  0  0  0  0  0  0  0  0  0
    0.9095   -8.1333    0.0000 C   0  0  0  0  0  0  0  0  0  0  0  0
    2.3767   -8.4451    0.0000 C   0  0  0  0  0  0  0  0  0  0  0  0
    3.3804   -7.3304    0.0000 C   0  0  0  0  0  0  0  0  0  0  0  0
    4.8477   -7.6423    0.0000 C   0  0  0  0  0  0  0  0  0  0  0  0
    6.3149   -7.9542    0.0000 N   0  0  0  0  0  0  0  0  0  0  0  0
    2.9169   -5.9038    0.0000 C   0  0  0  0  0  0  0  0  0  0  0  0
    3.9206   -4.7891    0.0000 Cl  0  0  0  0  0  0  0  0  0  0  0  0
    1.4497   -5.5920    0.0000 C   0  0  0  0  0  0  0  0  0  0  0  0
  2  1  1  6
  2  3  1  0
  2  4  1  0
  4  5  1  0
  5  6  1  0
  6  7  2  0
  7  8  1  0
  8  9  2  0
  9 10  1  0
 10 11  2  0
 11 12  1  0
 11 13  1  0
 13 14  2  0
  2 15  1  0
 15 16  2  0
 15 17  1  0
 17 18  1  0
 18 19  2  0
 19 20  1  0
 20 21  2  0
 21 22  1  0
 22 23  3  0
 21 24  1  0
 24 25  1  0
 24 26  2  0
 14  5  1  0
 26 18  1  0
 14  8  1  0
M  END
>  <assay_chembl_id>  (695) 
CHEMBL4411916

>  <assay_description>  (695) 
Antagonist activity at human androgen receptor expressed in HEK293 cells assessed as inhibition of R1881-induced receptor transactivation after 24 hrs by luciferase reporter gene assay

>  <parent_molecule_chembl_id>  (695) 
CHEMBL4590504

>  <canonical_smiles>  (695) 
C[C@](O)(Cn1ccc2ccc(F)cc21)C(=O)Nc1ccc(C#N)c(Cl)c1

>  <standard_type>  (695) 
IC50

>  <standard_relation>  (695) 
=

>  <standard_value>  (695) 
99.0

>  <standard_units>  (695) 
nM

>  <target_pref_name>  (695) 
Androgen Receptor

>  <target_chembl_id>  (695) 
CHEMBL1871

>  <target_organism>  (695) 
Homo sapiens

>  <pchembl_median>  (695) 
5.84

$$$$
CHEMBL4474118
     RDKit          2D

 26 28  0  0  0  0  0  0  0  0999 V2000
   -3.2638   -6.1236    0.0000 C   0  0  0  0  0  0  0  0  0  0  0  0
   -2.9520   -4.6564    0.0000 C   0  0  0  0  0  0  0  0  0  0  0  0
   -4.4192   -4.3445    0.0000 O   0  0  0  0  0  0  0  0  0  0  0  0
   -2.6401   -3.1891    0.0000 C   0  0  0  0  0  0  0  0  0  0  0  0
   -3.7548   -2.1855    0.0000 N   0  0  0  0  0  0  0  0  0  0  0  0
   -5.2220   -2.4973    0.0000 C   0  0  0  0  0  0  0  0  0  0  0  0
   -5.9720   -1.1983    0.0000 C   0  0  0  0  0  0  0  0  0  0  0  0
   -4.9684   -0.0836    0.0000 C   0  0  0  0  0  0  0  0  0  0  0  0
   -5.1251    1.4082    0.0000 C   0  0  0  0  0  0  0  0  0  0  0  0
   -3.9116    2.2899    0.0000 C   0  0  0  0  0  0  0  0  0  0  0  0
   -4.0684    3.7817    0.0000 F   0  0  0  0  0  0  0  0  0  0  0  0
   -2.5413    1.6798    0.0000 C   0  0  0  0  0  0  0  0  0  0  0  0
   -2.3845    0.1880    0.0000 C   0  0  0  0  0  0  0  0  0  0  0  0
   -3.5980   -0.6937    0.0000 C   0  0  0  0  0  0  0  0  0  0  0  0
   -1.4848   -4.9682    0.0000 C   0  0  0  0  0  0  0  0  0  0  0  0
   -0.4811   -3.8535    0.0000 O   0  0  0  0  0  0  0  0  0  0  0  0
   -1.0212   -6.3948    0.0000 N   0  0  0  0  0  0  0  0  0  0  0  0
    0.4460   -6.7067    0.0000 C   0  0  0  0  0  0  0  0  0  0  0  0
    0.9095   -8.1333    0.0000 C   0  0  0  0  0  0  0  0  0  0  0  0
    2.3767   -8.4451    0.0000 C   0  0  0  0  0  0  0  0  0  0  0  0
    3.3804   -7.3304    0.0000 C   0  0  0  0  0  0  0  0  0  0  0  0
    4.8477   -7.6423    0.0000 C   0  0  0  0  0  0  0  0  0  0  0  0
    6.3149   -7.9542    0.0000 N   0  0  0  0  0  0  0  0  0  0  0  0
    2.9169   -5.9038    0.0000 C   0  0  0  0  0  0  0  0  0  0  0  0
    3.9206   -4.7891    0.0000 Cl  0  0  0  0  0  0  0  0  0  0  0  0
    1.4497   -5.5920    0.0000 C   0  0  0  0  0  0  0  0  0  0  0  0
  2  1  1  6
  2  3  1  0
  2  4  1  0
  4  5  1  0
  5  6  1  0
  6  7  2  0
  7  8  1  0
  8  9  2  0
  9 10  1  0
 10 11  1  0
 10 12  2  0
 12 13  1  0
 13 14  2  0
  2 15  1  0
 15 16  2  0
 15 17  1  0
 17 18  1  0
 18 19  2  0
 19 20  1  0
 20 21  2  0
 21 22  1  0
 22 23  3  0
 21 24  1  0
 24 25  1  0
 24 26  2  0
 14  5  1  0
 26 18  1  0
 14  8  1  0
M  END
>  <assay_chembl_id>  (696) 
CHEMBL4411916

>  <assay_description>  (696) 
Antagonist activity at human androgen receptor expressed in HEK293 cells assessed as inhibition of R1881-induced receptor transactivation after 24 hrs by luciferase reporter gene assay

>  <parent_molecule_chembl_id>  (696) 
CHEMBL4474118

>  <canonical_smiles>  (696) 
C[C@](O)(Cn1ccc2cc(F)ccc21)C(=O)Nc1ccc(C#N)c(Cl)c1

>  <standard_type>  (696) 
IC50

>  <standard_relation>  (696) 
=

>  <standard_value>  (696) 
94.0

>  <standard_units>  (696) 
nM

>  <target_pref_name>  (696) 
Androgen Receptor

>  <target_chembl_id>  (696) 
CHEMBL1871

>  <target_organism>  (696) 
Homo sapiens

>  <pchembl_median>  (696) 
6.37

$$$$
CHEMBL4483663
     RDKit          2D

 26 28  0  0  0  0  0  0  0  0999 V2000
   -3.2638   -6.1236    0.0000 C   0  0  0  0  0  0  0  0  0  0  0  0
   -2.9520   -4.6564    0.0000 C   0  0  0  0  0  0  0  0  0  0  0  0
   -4.4192   -4.3445    0.0000 O   0  0  0  0  0  0  0  0  0  0  0  0
   -2.6401   -3.1891    0.0000 C   0  0  0  0  0  0  0  0  0  0  0  0
   -3.7548   -2.1855    0.0000 N   0  0  0  0  0  0  0  0  0  0  0  0
   -5.2220   -2.4973    0.0000 C   0  0  0  0  0  0  0  0  0  0  0  0
   -5.9720   -1.1983    0.0000 C   0  0  0  0  0  0  0  0  0  0  0  0
   -4.9684   -0.0836    0.0000 C   0  0  0  0  0  0  0  0  0  0  0  0
   -5.1251    1.4082    0.0000 C   0  0  0  0  0  0  0  0  0  0  0  0
   -6.4955    2.0183    0.0000 F   0  0  0  0  0  0  0  0  0  0  0  0
   -3.9116    2.2899    0.0000 C   0  0  0  0  0  0  0  0  0  0  0  0
   -2.5413    1.6798    0.0000 C   0  0  0  0  0  0  0  0  0  0  0  0
   -2.3845    0.1880    0.0000 C   0  0  0  0  0  0  0  0  0  0  0  0
   -3.5980   -0.6937    0.0000 C   0  0  0  0  0  0  0  0  0  0  0  0
   -1.4848   -4.9682    0.0000 C   0  0  0  0  0  0  0  0  0  0  0  0
   -0.4811   -3.8535    0.0000 O   0  0  0  0  0  0  0  0  0  0  0  0
   -1.0212   -6.3948    0.0000 N   0  0  0  0  0  0  0  0  0  0  0  0
    0.4460   -6.7067    0.0000 C   0  0  0  0  0  0  0  0  0  0  0  0
    0.9095   -8.1333    0.0000 C   0  0  0  0  0  0  0  0  0  0  0  0
    2.3767   -8.4451    0.0000 C   0  0  0  0  0  0  0  0  0  0  0  0
    3.3804   -7.3304    0.0000 C   0  0  0  0  0  0  0  0  0  0  0  0
    4.8477   -7.6423    0.0000 C   0  0  0  0  0  0  0  0  0  0  0  0
    6.3149   -7.9542    0.0000 N   0  0  0  0  0  0  0  0  0  0  0  0
    2.9169   -5.9038    0.0000 C   0  0  0  0  0  0  0  0  0  0  0  0
    3.9206   -4.7891    0.0000 Cl  0  0  0  0  0  0  0  0  0  0  0  0
    1.4497   -5.5920    0.0000 C   0  0  0  0  0  0  0  0  0  0  0  0
  2  1  1  6
  2  3  1  0
  2  4  1  0
  4  5  1  0
  5  6  1  0
  6  7  2  0
  7  8  1  0
  8  9  2  0
  9 10  1  0
  9 11  1  0
 11 12  2  0
 12 13  1  0
 13 14  2  0
  2 15  1  0
 15 16  2  0
 15 17  1  0
 17 18  1  0
 18 19  2  0
 19 20  1  0
 20 21  2  0
 21 22  1  0
 22 23  3  0
 21 24  1  0
 24 25  1  0
 24 26  2  0
 14  5  1  0
 26 18  1  0
 14  8  1  0
M  END
>  <assay_chembl_id>  (697) 
CHEMBL4411916

>  <assay_description>  (697) 
Antagonist activity at human androgen receptor expressed in HEK293 cells assessed as inhibition of R1881-induced receptor transactivation after 24 hrs by luciferase reporter gene assay

>  <parent_molecule_chembl_id>  (697) 
CHEMBL4483663

>  <canonical_smiles>  (697) 
C[C@](O)(Cn1ccc2c(F)cccc21)C(=O)Nc1ccc(C#N)c(Cl)c1

>  <standard_type>  (697) 
IC50

>  <standard_relation>  (697) 
=

>  <standard_value>  (697) 
142.0

>  <standard_units>  (697) 
nM

>  <target_pref_name>  (697) 
Androgen Receptor

>  <target_chembl_id>  (697) 
CHEMBL1871

>  <target_organism>  (697) 
Homo sapiens

>  <pchembl_median>  (697) 
6.85

$$$$
CHEMBL4567476
     RDKit          2D

 26 28  0  0  0  0  0  0  0  0999 V2000
   -3.2638   -6.1236    0.0000 C   0  0  0  0  0  0  0  0  0  0  0  0
   -2.9520   -4.6564    0.0000 C   0  0  0  0  0  0  0  0  0  0  0  0
   -4.4192   -4.3445    0.0000 O   0  0  0  0  0  0  0  0  0  0  0  0
   -2.6401   -3.1891    0.0000 C   0  0  0  0  0  0  0  0  0  0  0  0
   -3.7548   -2.1855    0.0000 N   0  0  0  0  0  0  0  0  0  0  0  0
   -5.2220   -2.4973    0.0000 C   0  0  0  0  0  0  0  0  0  0  0  0
   -5.9720   -1.1983    0.0000 C   0  0  0  0  0  0  0  0  0  0  0  0
   -7.4638   -1.0415    0.0000 F   0  0  0  0  0  0  0  0  0  0  0  0
   -4.9684   -0.0836    0.0000 C   0  0  0  0  0  0  0  0  0  0  0  0
   -5.1251    1.4082    0.0000 C   0  0  0  0  0  0  0  0  0  0  0  0
   -3.9116    2.2899    0.0000 C   0  0  0  0  0  0  0  0  0  0  0  0
   -2.5413    1.6798    0.0000 C   0  0  0  0  0  0  0  0  0  0  0  0
   -2.3845    0.1880    0.0000 C   0  0  0  0  0  0  0  0  0  0  0  0
   -3.5980   -0.6937    0.0000 C   0  0  0  0  0  0  0  0  0  0  0  0
   -1.4848   -4.9682    0.0000 C   0  0  0  0  0  0  0  0  0  0  0  0
   -0.4811   -3.8535    0.0000 O   0  0  0  0  0  0  0  0  0  0  0  0
   -1.0212   -6.3948    0.0000 N   0  0  0  0  0  0  0  0  0  0  0  0
    0.4460   -6.7067    0.0000 C   0  0  0  0  0  0  0  0  0  0  0  0
    0.9095   -8.1333    0.0000 C   0  0  0  0  0  0  0  0  0  0  0  0
    2.3767   -8.4451    0.0000 C   0  0  0  0  0  0  0  0  0  0  0  0
    3.3804   -7.3304    0.0000 C   0  0  0  0  0  0  0  0  0  0  0  0
    4.8477   -7.6423    0.0000 C   0  0  0  0  0  0  0  0  0  0  0  0
    6.3149   -7.9542    0.0000 N   0  0  0  0  0  0  0  0  0  0  0  0
    2.9169   -5.9038    0.0000 C   0  0  0  0  0  0  0  0  0  0  0  0
    3.9206   -4.7891    0.0000 Cl  0  0  0  0  0  0  0  0  0  0  0  0
    1.4497   -5.5920    0.0000 C   0  0  0  0  0  0  0  0  0  0  0  0
  2  1  1  6
  2  3  1  0
  2  4  1  0
  4  5  1  0
  5  6  1  0
  6  7  2  0
  7  8  1  0
  7  9  1  0
  9 10  2  0
 10 11  1  0
 11 12  2  0
 12 13  1  0
 13 14  2  0
  2 15  1  0
 15 16  2  0
 15 17  1  0
 17 18  1  0
 18 19  2  0
 19 20  1  0
 20 21  2  0
 21 22  1  0
 22 23  3  0
 21 24  1  0
 24 25  1  0
 24 26  2  0
 14  5  1  0
 26 18  1  0
 14  9  1  0
M  END
>  <assay_chembl_id>  (698) 
CHEMBL4411916

>  <assay_description>  (698) 
Antagonist activity at human androgen receptor expressed in HEK293 cells assessed as inhibition of R1881-induced receptor transactivation after 24 hrs by luciferase reporter gene assay

>  <parent_molecule_chembl_id>  (698) 
CHEMBL4567476

>  <canonical_smiles>  (698) 
C[C@](O)(Cn1cc(F)c2ccccc21)C(=O)Nc1ccc(C#N)c(Cl)c1

>  <standard_type>  (698) 
IC50

>  <standard_relation>  (698) 
=

>  <standard_value>  (698) 
45.0

>  <standard_units>  (698) 
nM

>  <target_pref_name>  (698) 
Androgen Receptor

>  <target_chembl_id>  (698) 
CHEMBL1871

>  <target_organism>  (698) 
Homo sapiens

>  <pchembl_median>  (698) 
7.205

$$$$
CHEMBL4475563
     RDKit          2D

 36 39  0  0  0  0  0  0  0  0999 V2000
    3.7923    3.2638    0.0000 C   0  0  0  0  0  0  0  0  0  0  0  0
    2.3250    2.9520    0.0000 C   0  0  0  0  0  0  0  0  0  0  0  0
    2.0132    4.4192    0.0000 O   0  0  0  0  0  0  0  0  0  0  0  0
    0.8578    2.6401    0.0000 C   0  0  0  0  0  0  0  0  0  0  0  0
   -0.1459    3.7548    0.0000 N   0  0  0  0  0  0  0  0  0  0  0  0
    0.1660    5.2220    0.0000 C   0  0  0  0  0  0  0  0  0  0  0  0
   -1.1330    5.9720    0.0000 C   0  0  0  0  0  0  0  0  0  0  0  0
   -2.2478    4.9684    0.0000 C   0  0  0  0  0  0  0  0  0  0  0  0
   -3.7395    5.1251    0.0000 C   0  0  0  0  0  0  0  0  0  0  0  0
   -4.3496    6.4955    0.0000 F   0  0  0  0  0  0  0  0  0  0  0  0
   -4.6212    3.9116    0.0000 C   0  0  0  0  0  0  0  0  0  0  0  0
   -4.0111    2.5413    0.0000 C   0  0  0  0  0  0  0  0  0  0  0  0
   -4.8928    1.3278    0.0000 C   0  0  0  0  0  0  0  0  0  0  0  0
   -4.2827   -0.0425    0.0000 C   0  0  0  0  0  0  0  0  0  0  0  0
   -5.1644   -1.2561    0.0000 C   0  0  0  0  0  0  0  0  0  0  0  0
   -6.6561   -1.0993    0.0000 C   0  0  0  0  0  0  0  0  0  0  0  0
   -7.5378   -2.3128    0.0000 F   0  0  0  0  0  0  0  0  0  0  0  0
   -7.2663    0.2710    0.0000 C   0  0  0  0  0  0  0  0  0  0  0  0
   -6.3846    1.4846    0.0000 C   0  0  0  0  0  0  0  0  0  0  0  0
   -2.5193    2.3845    0.0000 C   0  0  0  0  0  0  0  0  0  0  0  0
   -1.6377    3.5980    0.0000 C   0  0  0  0  0  0  0  0  0  0  0  0
    2.6369    1.4848    0.0000 C   0  0  0  0  0  0  0  0  0  0  0  0
    1.5222    0.4811    0.0000 O   0  0  0  0  0  0  0  0  0  0  0  0
    4.0635    1.0212    0.0000 N   0  0  0  0  0  0  0  0  0  0  0  0
    4.3754   -0.4460    0.0000 C   0  0  0  0  0  0  0  0  0  0  0  0
    3.2606   -1.4497    0.0000 C   0  0  0  0  0  0  0  0  0  0  0  0
    3.5725   -2.9169    0.0000 C   0  0  0  0  0  0  0  0  0  0  0  0
    4.9991   -3.3804    0.0000 C   0  0  0  0  0  0  0  0  0  0  0  0
    5.3110   -4.8477    0.0000 C   0  0  0  0  0  0  0  0  0  0  0  0
    5.6228   -6.3149    0.0000 N   0  0  0  0  0  0  0  0  0  0  0  0
    6.1138   -2.3767    0.0000 C   0  0  0  0  0  0  0  0  0  0  0  0
    7.5404   -2.8403    0.0000 C   0  0  0  0  0  0  0  0  0  0  0  0
    8.9670   -3.3038    0.0000 F   0  0  0  0  0  0  0  0  0  0  0  0
    8.0039   -1.4137    0.0000 F   0  0  0  0  0  0  0  0  0  0  0  0
    7.0769   -4.2668    0.0000 F   0  0  0  0  0  0  0  0  0  0  0  0
    5.8019   -0.9095    0.0000 C   0  0  0  0  0  0  0  0  0  0  0  0
  2  1  1  1
  2  3  1  0
  2  4  1  0
  4  5  1  0
  5  6  1  0
  6  7  2  0
  7  8  1  0
  8  9  2  0
  9 10  1  0
  9 11  1  0
 11 12  2  0
 12 13  1  0
 13 14  2  0
 14 15  1  0
 15 16  2  0
 16 17  1  0
 16 18  1  0
 18 19  2  0
 12 20  1  0
 20 21  2  0
  2 22  1  0
 22 23  2  0
 22 24  1  0
 24 25  1  0
 25 26  2  0
 26 27  1  0
 27 28  2  0
 28 29  1  0
 29 30  3  0
 28 31  1  0
 31 32  1  0
 32 33  1  0
 32 34  1  0
 32 35  1  0
 31 36  2  0
 21  5  1  0
 36 25  1  0
 21  8  1  0
 19 13  1  0
M  END
>  <assay_chembl_id>  (699) 
CHEMBL4411916

>  <assay_description>  (699) 
Antagonist activity at human androgen receptor expressed in HEK293 cells assessed as inhibition of R1881-induced receptor transactivation after 24 hrs by luciferase reporter gene assay

>  <parent_molecule_chembl_id>  (699) 
CHEMBL4475563

>  <canonical_smiles>  (699) 
C[C@](O)(Cn1ccc2c(F)cc(-c3ccc(F)cc3)cc21)C(=O)Nc1ccc(C#N)c(C(F)(F)F)c1

>  <standard_type>  (699) 
IC50

>  <standard_relation>  (699) 
=

>  <standard_value>  (699) 
898.0

>  <standard_units>  (699) 
nM

>  <target_pref_name>  (699) 
Androgen Receptor

>  <target_chembl_id>  (699) 
CHEMBL1871

>  <target_organism>  (699) 
Homo sapiens

>  <pchembl_median>  (699) 
5.22

$$$$
CHEMBL4520679
     RDKit          2D

 35 38  0  0  0  0  0  0  0  0999 V2000
    3.7923    3.2638    0.0000 C   0  0  0  0  0  0  0  0  0  0  0  0
    2.3250    2.9520    0.0000 C   0  0  0  0  0  0  0  0  0  0  0  0
    2.0132    4.4192    0.0000 O   0  0  0  0  0  0  0  0  0  0  0  0
    0.8578    2.6401    0.0000 C   0  0  0  0  0  0  0  0  0  0  0  0
   -0.1459    3.7548    0.0000 N   0  0  0  0  0  0  0  0  0  0  0  0
    0.1660    5.2220    0.0000 C   0  0  0  0  0  0  0  0  0  0  0  0
   -1.1330    5.9720    0.0000 C   0  0  0  0  0  0  0  0  0  0  0  0
   -2.2478    4.9684    0.0000 C   0  0  0  0  0  0  0  0  0  0  0  0
   -3.7395    5.1251    0.0000 C   0  0  0  0  0  0  0  0  0  0  0  0
   -4.3496    6.4955    0.0000 F   0  0  0  0  0  0  0  0  0  0  0  0
   -4.6212    3.9116    0.0000 C   0  0  0  0  0  0  0  0  0  0  0  0
   -6.1130    4.0684    0.0000 C   0  0  0  0  0  0  0  0  0  0  0  0
   -6.9947    2.8549    0.0000 C   0  0  0  0  0  0  0  0  0  0  0  0
   -8.4865    3.0117    0.0000 C   0  0  0  0  0  0  0  0  0  0  0  0
   -9.0966    4.3820    0.0000 C   0  0  0  0  0  0  0  0  0  0  0  0
   -8.2149    5.5955    0.0000 C   0  0  0  0  0  0  0  0  0  0  0  0
   -6.7231    5.4387    0.0000 C   0  0  0  0  0  0  0  0  0  0  0  0
   -4.0111    2.5413    0.0000 C   0  0  0  0  0  0  0  0  0  0  0  0
   -2.5193    2.3845    0.0000 C   0  0  0  0  0  0  0  0  0  0  0  0
   -1.6377    3.5980    0.0000 C   0  0  0  0  0  0  0  0  0  0  0  0
    2.6369    1.4848    0.0000 C   0  0  0  0  0  0  0  0  0  0  0  0
    1.5222    0.4811    0.0000 O   0  0  0  0  0  0  0  0  0  0  0  0
    4.0635    1.0212    0.0000 N   0  0  0  0  0  0  0  0  0  0  0  0
    4.3754   -0.4460    0.0000 C   0  0  0  0  0  0  0  0  0  0  0  0
    3.2606   -1.4497    0.0000 C   0  0  0  0  0  0  0  0  0  0  0  0
    3.5725   -2.9169    0.0000 C   0  0  0  0  0  0  0  0  0  0  0  0
    4.9991   -3.3804    0.0000 C   0  0  0  0  0  0  0  0  0  0  0  0
    5.3110   -4.8477    0.0000 C   0  0  0  0  0  0  0  0  0  0  0  0
    5.6228   -6.3149    0.0000 N   0  0  0  0  0  0  0  0  0  0  0  0
    6.1138   -2.3767    0.0000 C   0  0  0  0  0  0  0  0  0  0  0  0
    7.5404   -2.8403    0.0000 C   0  0  0  0  0  0  0  0  0  0  0  0
    8.9670   -3.3038    0.0000 F   0  0  0  0  0  0  0  0  0  0  0  0
    8.0039   -1.4137    0.0000 F   0  0  0  0  0  0  0  0  0  0  0  0
    7.0769   -4.2668    0.0000 F   0  0  0  0  0  0  0  0  0  0  0  0
    5.8019   -0.9095    0.0000 C   0  0  0  0  0  0  0  0  0  0  0  0
  2  1  1  1
  2  3  1  0
  2  4  1  0
  4  5  1  0
  5  6  1  0
  6  7  2  0
  7  8  1  0
  8  9  2  0
  9 10  1  0
  9 11  1  0
 11 12  1  0
 12 13  2  0
 13 14  1  0
 14 15  2  0
 15 16  1  0
 16 17  2  0
 11 18  2  0
 18 19  1  0
 19 20  2  0
  2 21  1  0
 21 22  2  0
 21 23  1  0
 23 24  1  0
 24 25  2  0
 25 26  1  0
 26 27  2  0
 27 28  1  0
 28 29  3  0
 27 30  1  0
 30 31  1  0
 31 32  1  0
 31 33  1  0
 31 34  1  0
 30 35  2  0
 20  5  1  0
 35 24  1  0
 20  8  1  0
 17 12  1  0
M  END
>  <assay_chembl_id>  (700) 
CHEMBL4411916

>  <assay_description>  (700) 
Antagonist activity at human androgen receptor expressed in HEK293 cells assessed as inhibition of R1881-induced receptor transactivation after 24 hrs by luciferase reporter gene assay

>  <parent_molecule_chembl_id>  (700) 
CHEMBL4520679

>  <canonical_smiles>  (700) 
C[C@](O)(Cn1ccc2c(F)c(-c3ccccc3)ccc21)C(=O)Nc1ccc(C#N)c(C(F)(F)F)c1

>  <standard_type>  (700) 
IC50

>  <standard_relation>  (700) 
=

>  <standard_value>  (700) 
1015.0

>  <standard_units>  (700) 
nM

>  <target_pref_name>  (700) 
Androgen Receptor

>  <target_chembl_id>  (700) 
CHEMBL1871

>  <target_organism>  (700) 
Homo sapiens

>  <pchembl_median>  (700) 
5.55

$$$$
CHEMBL4583465
     RDKit          2D

 30 32  0  0  0  0  0  0  0  0999 V2000
   -3.2638   -6.1236    0.0000 C   0  0  0  0  0  0  0  0  0  0  0  0
   -2.9520   -4.6564    0.0000 C   0  0  0  0  0  0  0  0  0  0  0  0
   -4.4192   -4.3445    0.0000 O   0  0  0  0  0  0  0  0  0  0  0  0
   -2.6401   -3.1891    0.0000 C   0  0  0  0  0  0  0  0  0  0  0  0
   -3.7548   -2.1855    0.0000 N   0  0  0  0  0  0  0  0  0  0  0  0
   -5.2220   -2.4973    0.0000 C   0  0  0  0  0  0  0  0  0  0  0  0
   -5.9720   -1.1983    0.0000 C   0  0  0  0  0  0  0  0  0  0  0  0
   -4.9684   -0.0836    0.0000 C   0  0  0  0  0  0  0  0  0  0  0  0
   -5.1251    1.4082    0.0000 N   0  0  0  0  0  0  0  0  0  0  0  0
   -3.9116    2.2899    0.0000 C   0  0  0  0  0  0  0  0  0  0  0  0
   -4.0684    3.7817    0.0000 C   0  0  0  0  0  0  0  0  0  0  0  0
   -4.2252    5.2735    0.0000 N   0  0  0  0  0  0  0  0  0  0  0  0
   -2.5413    1.6798    0.0000 C   0  0  0  0  0  0  0  0  0  0  0  0
   -2.3845    0.1880    0.0000 C   0  0  0  0  0  0  0  0  0  0  0  0
   -3.5980   -0.6937    0.0000 C   0  0  0  0  0  0  0  0  0  0  0  0
   -1.4848   -4.9682    0.0000 C   0  0  0  0  0  0  0  0  0  0  0  0
   -0.4811   -3.8535    0.0000 O   0  0  0  0  0  0  0  0  0  0  0  0
   -1.0212   -6.3948    0.0000 N   0  0  0  0  0  0  0  0  0  0  0  0
    0.4460   -6.7067    0.0000 C   0  0  0  0  0  0  0  0  0  0  0  0
    0.9095   -8.1333    0.0000 C   0  0  0  0  0  0  0  0  0  0  0  0
    2.3767   -8.4451    0.0000 C   0  0  0  0  0  0  0  0  0  0  0  0
    3.3804   -7.3304    0.0000 C   0  0  0  0  0  0  0  0  0  0  0  0
    4.8477   -7.6423    0.0000 C   0  0  0  0  0  0  0  0  0  0  0  0
    6.3149   -7.9542    0.0000 N   0  0  0  0  0  0  0  0  0  0  0  0
    2.9169   -5.9038    0.0000 C   0  0  0  0  0  0  0  0  0  0  0  0
    3.9206   -4.7891    0.0000 C   0  0  0  0  0  0  0  0  0  0  0  0
    4.9243   -3.6744    0.0000 F   0  0  0  0  0  0  0  0  0  0  0  0
    5.0353   -5.7928    0.0000 F   0  0  0  0  0  0  0  0  0  0  0  0
    2.8059   -3.7854    0.0000 F   0  0  0  0  0  0  0  0  0  0  0  0
    1.4497   -5.5920    0.0000 C   0  0  0  0  0  0  0  0  0  0  0  0
  2  1  1  6
  2  3  1  0
  2  4  1  0
  4  5  1  0
  5  6  1  0
  6  7  2  0
  7  8  1  0
  8  9  2  0
  9 10  1  0
 10 11  1  0
 11 12  3  0
 10 13  2  0
 13 14  1  0
 14 15  2  0
  2 16  1  0
 16 17  2  0
 16 18  1  0
 18 19  1  0
 19 20  2  0
 20 21  1  0
 21 22  2  0
 22 23  1  0
 23 24  3  0
 22 25  1  0
 25 26  1  0
 26 27  1  0
 26 28  1  0
 26 29  1  0
 25 30  2  0
 15  5  1  0
 30 19  1  0
 15  8  1  0
M  END
>  <assay_chembl_id>  (701) 
CHEMBL4411916

>  <assay_description>  (701) 
Antagonist activity at human androgen receptor expressed in HEK293 cells assessed as inhibition of R1881-induced receptor transactivation after 24 hrs by luciferase reporter gene assay

>  <parent_molecule_chembl_id>  (701) 
CHEMBL4583465

>  <canonical_smiles>  (701) 
C[C@](O)(Cn1ccc2nc(C#N)ccc21)C(=O)Nc1ccc(C#N)c(C(F)(F)F)c1

>  <standard_type>  (701) 
IC50

>  <standard_relation>  (701) 
=

>  <standard_value>  (701) 
686.0

>  <standard_units>  (701) 
nM

>  <target_pref_name>  (701) 
Androgen Receptor

>  <target_chembl_id>  (701) 
CHEMBL1871

>  <target_organism>  (701) 
Homo sapiens

>  <pchembl_median>  (701) 
5.42

$$$$
CHEMBL4448937
     RDKit          2D

 33 35  0  0  0  0  0  0  0  0999 V2000
   10.7190   -3.3117    0.0000 C   0  0  0  0  0  0  0  0  0  0  0  0
    9.8373   -2.0982    0.0000 C   0  0  0  0  0  0  0  0  0  0  0  0
    8.3455   -2.2550    0.0000 O   0  0  0  0  0  0  0  0  0  0  0  0
    7.4638   -1.0415    0.0000 C   0  0  0  0  0  0  0  0  0  0  0  0
    8.0739    0.3288    0.0000 O   0  0  0  0  0  0  0  0  0  0  0  0
    5.9720   -1.1983    0.0000 C   0  0  0  0  0  0  0  0  0  0  0  0
    5.2220   -2.4973    0.0000 C   0  0  0  0  0  0  0  0  0  0  0  0
    3.7548   -2.1855    0.0000 N   0  0  0  0  0  0  0  0  0  0  0  0
    2.6401   -3.1891    0.0000 C   0  0  0  0  0  0  0  0  0  0  0  0
    2.9520   -4.6564    0.0000 C   0  0  0  0  0  0  0  0  0  0  0  0
    3.2638   -6.1236    0.0000 C   0  0  0  0  0  0  0  0  0  0  0  0
    4.4192   -4.3445    0.0000 O   0  0  0  0  0  0  0  0  0  0  0  0
    1.4848   -4.9682    0.0000 C   0  0  0  0  0  0  0  0  0  0  0  0
    0.4811   -3.8535    0.0000 O   0  0  0  0  0  0  0  0  0  0  0  0
    1.0212   -6.3948    0.0000 N   0  0  0  0  0  0  0  0  0  0  0  0
   -0.4460   -6.7067    0.0000 C   0  0  0  0  0  0  0  0  0  0  0  0
   -1.4497   -5.5920    0.0000 C   0  0  0  0  0  0  0  0  0  0  0  0
   -2.9169   -5.9038    0.0000 C   0  0  0  0  0  0  0  0  0  0  0  0
   -3.3804   -7.3304    0.0000 C   0  0  0  0  0  0  0  0  0  0  0  0
   -4.8477   -7.6423    0.0000 C   0  0  0  0  0  0  0  0  0  0  0  0
   -6.3149   -7.9542    0.0000 N   0  0  0  0  0  0  0  0  0  0  0  0
   -2.3767   -8.4451    0.0000 C   0  0  0  0  0  0  0  0  0  0  0  0
   -2.8403   -9.8717    0.0000 C   0  0  0  0  0  0  0  0  0  0  0  0
   -3.3038  -11.2983    0.0000 F   0  0  0  0  0  0  0  0  0  0  0  0
   -1.4137  -10.3353    0.0000 F   0  0  0  0  0  0  0  0  0  0  0  0
   -4.2668   -9.4082    0.0000 F   0  0  0  0  0  0  0  0  0  0  0  0
   -0.9095   -8.1333    0.0000 C   0  0  0  0  0  0  0  0  0  0  0  0
    3.5980   -0.6937    0.0000 C   0  0  0  0  0  0  0  0  0  0  0  0
    2.3845    0.1880    0.0000 C   0  0  0  0  0  0  0  0  0  0  0  0
    2.5413    1.6798    0.0000 C   0  0  0  0  0  0  0  0  0  0  0  0
    3.9116    2.2899    0.0000 C   0  0  0  0  0  0  0  0  0  0  0  0
    5.1251    1.4082    0.0000 C   0  0  0  0  0  0  0  0  0  0  0  0
    4.9684   -0.0836    0.0000 C   0  0  0  0  0  0  0  0  0  0  0  0
  1  2  1  0
  2  3  1  0
  3  4  1  0
  4  5  2  0
  4  6  1  0
  6  7  2  0
  7  8  1  0
  8  9  1  0
  9 10  1  0
 10 11  1  1
 10 12  1  0
 10 13  1  0
 13 14  2  0
 13 15  1  0
 15 16  1  0
 16 17  2  0
 17 18  1  0
 18 19  2  0
 19 20  1  0
 20 21  3  0
 19 22  1  0
 22 23  1  0
 23 24  1  0
 23 25  1  0
 23 26  1  0
 22 27  2  0
  8 28  1  0
 28 29  2  0
 29 30  1  0
 30 31  2  0
 31 32  1  0
 32 33  2  0
 33  6  1  0
 27 16  1  0
 33 28  1  0
M  END
>  <assay_chembl_id>  (702) 
CHEMBL4411916

>  <assay_description>  (702) 
Antagonist activity at human androgen receptor expressed in HEK293 cells assessed as inhibition of R1881-induced receptor transactivation after 24 hrs by luciferase reporter gene assay

>  <parent_molecule_chembl_id>  (702) 
CHEMBL4448937

>  <canonical_smiles>  (702) 
CCOC(=O)c1cn(C[C@](C)(O)C(=O)Nc2ccc(C#N)c(C(F)(F)F)c2)c2ccccc12

>  <standard_type>  (702) 
IC50

>  <standard_relation>  (702) 
=

>  <standard_value>  (702) 
972.0

>  <standard_units>  (702) 
nM

>  <target_pref_name>  (702) 
Androgen Receptor

>  <target_chembl_id>  (702) 
CHEMBL1871

>  <target_organism>  (702) 
Homo sapiens

>  <pchembl_median>  (702) 
5.13

$$$$
CHEMBL4542693
     RDKit          2D

 29 31  0  0  0  0  0  0  0  0999 V2000
   -3.2638   -6.1236    0.0000 C   0  0  0  0  0  0  0  0  0  0  0  0
   -2.9520   -4.6564    0.0000 C   0  0  0  0  0  0  0  0  0  0  0  0
   -4.4192   -4.3445    0.0000 O   0  0  0  0  0  0  0  0  0  0  0  0
   -2.6401   -3.1891    0.0000 C   0  0  0  0  0  0  0  0  0  0  0  0
   -3.7548   -2.1855    0.0000 N   0  0  0  0  0  0  0  0  0  0  0  0
   -5.2220   -2.4973    0.0000 C   0  0  0  0  0  0  0  0  0  0  0  0
   -5.9720   -1.1983    0.0000 C   0  0  0  0  0  0  0  0  0  0  0  0
   -4.9684   -0.0836    0.0000 C   0  0  0  0  0  0  0  0  0  0  0  0
   -5.1251    1.4082    0.0000 C   0  0  0  0  0  0  0  0  0  0  0  0
   -3.9116    2.2899    0.0000 C   0  0  0  0  0  0  0  0  0  0  0  0
   -4.0684    3.7817    0.0000 I   0  0  0  0  0  0  0  0  0  0  0  0
   -2.5413    1.6798    0.0000 C   0  0  0  0  0  0  0  0  0  0  0  0
   -2.3845    0.1880    0.0000 C   0  0  0  0  0  0  0  0  0  0  0  0
   -3.5980   -0.6937    0.0000 C   0  0  0  0  0  0  0  0  0  0  0  0
   -1.4848   -4.9682    0.0000 C   0  0  0  0  0  0  0  0  0  0  0  0
   -0.4811   -3.8535    0.0000 O   0  0  0  0  0  0  0  0  0  0  0  0
   -1.0212   -6.3948    0.0000 N   0  0  0  0  0  0  0  0  0  0  0  0
    0.4460   -6.7067    0.0000 C   0  0  0  0  0  0  0  0  0  0  0  0
    0.9095   -8.1333    0.0000 C   0  0  0  0  0  0  0  0  0  0  0  0
    2.3767   -8.4451    0.0000 C   0  0  0  0  0  0  0  0  0  0  0  0
    3.3804   -7.3304    0.0000 C   0  0  0  0  0  0  0  0  0  0  0  0
    4.8477   -7.6423    0.0000 C   0  0  0  0  0  0  0  0  0  0  0  0
    6.3149   -7.9542    0.0000 N   0  0  0  0  0  0  0  0  0  0  0  0
    2.9169   -5.9038    0.0000 C   0  0  0  0  0  0  0  0  0  0  0  0
    3.9206   -4.7891    0.0000 C   0  0  0  0  0  0  0  0  0  0  0  0
    4.9243   -3.6744    0.0000 F   0  0  0  0  0  0  0  0  0  0  0  0
    5.0353   -5.7928    0.0000 F   0  0  0  0  0  0  0  0  0  0  0  0
    2.8059   -3.7854    0.0000 F   0  0  0  0  0  0  0  0  0  0  0  0
    1.4497   -5.5920    0.0000 C   0  0  0  0  0  0  0  0  0  0  0  0
  2  1  1  6
  2  3  1  0
  2  4  1  0
  4  5  1  0
  5  6  1  0
  6  7  2  0
  7  8  1  0
  8  9  2  0
  9 10  1  0
 10 11  1  0
 10 12  2  0
 12 13  1  0
 13 14  2  0
  2 15  1  0
 15 16  2  0
 15 17  1  0
 17 18  1  0
 18 19  2  0
 19 20  1  0
 20 21  2  0
 21 22  1  0
 22 23  3  0
 21 24  1  0
 24 25  1  0
 25 26  1  0
 25 27  1  0
 25 28  1  0
 24 29  2  0
 14  5  1  0
 29 18  1  0
 14  8  1  0
M  END
>  <assay_chembl_id>  (703) 
CHEMBL4411916

>  <assay_description>  (703) 
Antagonist activity at human androgen receptor expressed in HEK293 cells assessed as inhibition of R1881-induced receptor transactivation after 24 hrs by luciferase reporter gene assay

>  <parent_molecule_chembl_id>  (703) 
CHEMBL4542693

>  <canonical_smiles>  (703) 
C[C@](O)(Cn1ccc2cc(I)ccc21)C(=O)Nc1ccc(C#N)c(C(F)(F)F)c1

>  <standard_type>  (703) 
IC50

>  <standard_relation>  (703) 
=

>  <standard_value>  (703) 
985.0

>  <standard_units>  (703) 
nM

>  <target_pref_name>  (703) 
Androgen Receptor

>  <target_chembl_id>  (703) 
CHEMBL1871

>  <target_organism>  (703) 
Homo sapiens

>  <pchembl_median>  (703) 
6.04

$$$$
CHEMBL4456781
     RDKit          2D

 29 31  0  0  0  0  0  0  0  0999 V2000
   -3.2638   -6.1236    0.0000 C   0  0  0  0  0  0  0  0  0  0  0  0
   -2.9520   -4.6564    0.0000 C   0  0  0  0  0  0  0  0  0  0  0  0
   -4.4192   -4.3445    0.0000 O   0  0  0  0  0  0  0  0  0  0  0  0
   -2.6401   -3.1891    0.0000 C   0  0  0  0  0  0  0  0  0  0  0  0
   -3.7548   -2.1855    0.0000 N   0  0  0  0  0  0  0  0  0  0  0  0
   -5.2220   -2.4973    0.0000 C   0  0  0  0  0  0  0  0  0  0  0  0
   -5.9720   -1.1983    0.0000 C   0  0  0  0  0  0  0  0  0  0  0  0
   -4.9684   -0.0836    0.0000 C   0  0  0  0  0  0  0  0  0  0  0  0
   -5.1251    1.4082    0.0000 C   0  0  0  0  0  0  0  0  0  0  0  0
   -3.9116    2.2899    0.0000 C   0  0  0  0  0  0  0  0  0  0  0  0
   -4.0684    3.7817    0.0000 Br  0  0  0  0  0  0  0  0  0  0  0  0
   -2.5413    1.6798    0.0000 C   0  0  0  0  0  0  0  0  0  0  0  0
   -2.3845    0.1880    0.0000 C   0  0  0  0  0  0  0  0  0  0  0  0
   -3.5980   -0.6937    0.0000 C   0  0  0  0  0  0  0  0  0  0  0  0
   -1.4848   -4.9682    0.0000 C   0  0  0  0  0  0  0  0  0  0  0  0
   -0.4811   -3.8535    0.0000 O   0  0  0  0  0  0  0  0  0  0  0  0
   -1.0212   -6.3948    0.0000 N   0  0  0  0  0  0  0  0  0  0  0  0
    0.4460   -6.7067    0.0000 C   0  0  0  0  0  0  0  0  0  0  0  0
    0.9095   -8.1333    0.0000 C   0  0  0  0  0  0  0  0  0  0  0  0
    2.3767   -8.4451    0.0000 C   0  0  0  0  0  0  0  0  0  0  0  0
    3.3804   -7.3304    0.0000 C   0  0  0  0  0  0  0  0  0  0  0  0
    4.8477   -7.6423    0.0000 C   0  0  0  0  0  0  0  0  0  0  0  0
    6.3149   -7.9542    0.0000 N   0  0  0  0  0  0  0  0  0  0  0  0
    2.9169   -5.9038    0.0000 C   0  0  0  0  0  0  0  0  0  0  0  0
    3.9206   -4.7891    0.0000 C   0  0  0  0  0  0  0  0  0  0  0  0
    4.9243   -3.6744    0.0000 F   0  0  0  0  0  0  0  0  0  0  0  0
    5.0353   -5.7928    0.0000 F   0  0  0  0  0  0  0  0  0  0  0  0
    2.8059   -3.7854    0.0000 F   0  0  0  0  0  0  0  0  0  0  0  0
    1.4497   -5.5920    0.0000 C   0  0  0  0  0  0  0  0  0  0  0  0
  2  1  1  6
  2  3  1  0
  2  4  1  0
  4  5  1  0
  5  6  1  0
  6  7  2  0
  7  8  1  0
  8  9  2  0
  9 10  1  0
 10 11  1  0
 10 12  2  0
 12 13  1  0
 13 14  2  0
  2 15  1  0
 15 16  2  0
 15 17  1  0
 17 18  1  0
 18 19  2  0
 19 20  1  0
 20 21  2  0
 21 22  1  0
 22 23  3  0
 21 24  1  0
 24 25  1  0
 25 26  1  0
 25 27  1  0
 25 28  1  0
 24 29  2  0
 14  5  1  0
 29 18  1  0
 14  8  1  0
M  END
>  <assay_chembl_id>  (704) 
CHEMBL4411916

>  <assay_description>  (704) 
Antagonist activity at human androgen receptor expressed in HEK293 cells assessed as inhibition of R1881-induced receptor transactivation after 24 hrs by luciferase reporter gene assay

>  <parent_molecule_chembl_id>  (704) 
CHEMBL4456781

>  <canonical_smiles>  (704) 
C[C@](O)(Cn1ccc2cc(Br)ccc21)C(=O)Nc1ccc(C#N)c(C(F)(F)F)c1

>  <standard_type>  (704) 
IC50

>  <standard_relation>  (704) 
=

>  <standard_value>  (704) 
918.0

>  <standard_units>  (704) 
nM

>  <target_pref_name>  (704) 
Androgen Receptor

>  <target_chembl_id>  (704) 
CHEMBL1871

>  <target_organism>  (704) 
Homo sapiens

>  <pchembl_median>  (704) 
6.54

$$$$
CHEMBL4460567
     RDKit          2D

 35 38  0  0  0  0  0  0  0  0999 V2000
    3.7923    3.2638    0.0000 C   0  0  0  0  0  0  0  0  0  0  0  0
    2.3250    2.9520    0.0000 C   0  0  0  0  0  0  0  0  0  0  0  0
    2.0132    4.4192    0.0000 O   0  0  0  0  0  0  0  0  0  0  0  0
    0.8578    2.6401    0.0000 C   0  0  0  0  0  0  0  0  0  0  0  0
   -0.1459    3.7548    0.0000 N   0  0  0  0  0  0  0  0  0  0  0  0
    0.1660    5.2220    0.0000 C   0  0  0  0  0  0  0  0  0  0  0  0
   -1.1330    5.9720    0.0000 C   0  0  0  0  0  0  0  0  0  0  0  0
   -2.2478    4.9684    0.0000 C   0  0  0  0  0  0  0  0  0  0  0  0
   -3.7395    5.1251    0.0000 C   0  0  0  0  0  0  0  0  0  0  0  0
   -4.6212    3.9116    0.0000 C   0  0  0  0  0  0  0  0  0  0  0  0
   -6.1130    4.0684    0.0000 F   0  0  0  0  0  0  0  0  0  0  0  0
   -4.0111    2.5413    0.0000 C   0  0  0  0  0  0  0  0  0  0  0  0
   -4.8928    1.3278    0.0000 C   0  0  0  0  0  0  0  0  0  0  0  0
   -4.2827   -0.0425    0.0000 C   0  0  0  0  0  0  0  0  0  0  0  0
   -5.1644   -1.2561    0.0000 C   0  0  0  0  0  0  0  0  0  0  0  0
   -6.6561   -1.0993    0.0000 C   0  0  0  0  0  0  0  0  0  0  0  0
   -7.2663    0.2710    0.0000 C   0  0  0  0  0  0  0  0  0  0  0  0
   -6.3846    1.4846    0.0000 C   0  0  0  0  0  0  0  0  0  0  0  0
   -2.5193    2.3845    0.0000 C   0  0  0  0  0  0  0  0  0  0  0  0
   -1.6377    3.5980    0.0000 C   0  0  0  0  0  0  0  0  0  0  0  0
    2.6369    1.4848    0.0000 C   0  0  0  0  0  0  0  0  0  0  0  0
    1.5222    0.4811    0.0000 O   0  0  0  0  0  0  0  0  0  0  0  0
    4.0635    1.0212    0.0000 N   0  0  0  0  0  0  0  0  0  0  0  0
    4.3754   -0.4460    0.0000 C   0  0  0  0  0  0  0  0  0  0  0  0
    3.2606   -1.4497    0.0000 C   0  0  0  0  0  0  0  0  0  0  0  0
    3.5725   -2.9169    0.0000 C   0  0  0  0  0  0  0  0  0  0  0  0
    4.9991   -3.3804    0.0000 C   0  0  0  0  0  0  0  0  0  0  0  0
    5.3110   -4.8477    0.0000 C   0  0  0  0  0  0  0  0  0  0  0  0
    5.6228   -6.3149    0.0000 N   0  0  0  0  0  0  0  0  0  0  0  0
    6.1138   -2.3767    0.0000 C   0  0  0  0  0  0  0  0  0  0  0  0
    7.5404   -2.8403    0.0000 C   0  0  0  0  0  0  0  0  0  0  0  0
    8.9670   -3.3038    0.0000 F   0  0  0  0  0  0  0  0  0  0  0  0
    8.0039   -1.4137    0.0000 F   0  0  0  0  0  0  0  0  0  0  0  0
    7.0769   -4.2668    0.0000 F   0  0  0  0  0  0  0  0  0  0  0  0
    5.8019   -0.9095    0.0000 C   0  0  0  0  0  0  0  0  0  0  0  0
  2  1  1  1
  2  3  1  0
  2  4  1  0
  4  5  1  0
  5  6  1  0
  6  7  2  0
  7  8  1  0
  8  9  2  0
  9 10  1  0
 10 11  1  0
 10 12  2  0
 12 13  1  0
 13 14  2  0
 14 15  1  0
 15 16  2  0
 16 17  1  0
 17 18  2  0
 12 19  1  0
 19 20  2  0
  2 21  1  0
 21 22  2  0
 21 23  1  0
 23 24  1  0
 24 25  2  0
 25 26  1  0
 26 27  2  0
 27 28  1  0
 28 29  3  0
 27 30  1  0
 30 31  1  0
 31 32  1  0
 31 33  1  0
 31 34  1  0
 30 35  2  0
 20  5  1  0
 35 24  1  0
 20  8  1  0
 18 13  1  0
M  END
>  <assay_chembl_id>  (705) 
CHEMBL4411916

>  <assay_description>  (705) 
Antagonist activity at human androgen receptor expressed in HEK293 cells assessed as inhibition of R1881-induced receptor transactivation after 24 hrs by luciferase reporter gene assay

>  <parent_molecule_chembl_id>  (705) 
CHEMBL4460567

>  <canonical_smiles>  (705) 
C[C@](O)(Cn1ccc2cc(F)c(-c3ccccc3)cc21)C(=O)Nc1ccc(C#N)c(C(F)(F)F)c1

>  <standard_type>  (705) 
IC50

>  <standard_relation>  (705) 
=

>  <standard_value>  (705) 
215.0

>  <standard_units>  (705) 
nM

>  <target_pref_name>  (705) 
Androgen Receptor

>  <target_chembl_id>  (705) 
CHEMBL1871

>  <target_organism>  (705) 
Homo sapiens

>  <pchembl_median>  (705) 
6.18

$$$$
CHEMBL4442857
     RDKit          2D

 30 32  0  0  0  0  0  0  0  0999 V2000
    7.4638   -1.0415    0.0000 C   0  0  0  0  0  0  0  0  0  0  0  0
    5.9720   -1.1983    0.0000 C   0  0  0  0  0  0  0  0  0  0  0  0
    5.2220   -2.4973    0.0000 C   0  0  0  0  0  0  0  0  0  0  0  0
    3.7548   -2.1855    0.0000 N   0  0  0  0  0  0  0  0  0  0  0  0
    2.6401   -3.1891    0.0000 C   0  0  0  0  0  0  0  0  0  0  0  0
    2.9520   -4.6564    0.0000 C   0  0  0  0  0  0  0  0  0  0  0  0
    3.2638   -6.1236    0.0000 C   0  0  0  0  0  0  0  0  0  0  0  0
    4.4192   -4.3445    0.0000 O   0  0  0  0  0  0  0  0  0  0  0  0
    1.4848   -4.9682    0.0000 C   0  0  0  0  0  0  0  0  0  0  0  0
    0.4811   -3.8535    0.0000 O   0  0  0  0  0  0  0  0  0  0  0  0
    1.0212   -6.3948    0.0000 N   0  0  0  0  0  0  0  0  0  0  0  0
   -0.4460   -6.7067    0.0000 C   0  0  0  0  0  0  0  0  0  0  0  0
   -1.4497   -5.5920    0.0000 C   0  0  0  0  0  0  0  0  0  0  0  0
   -2.9169   -5.9038    0.0000 C   0  0  0  0  0  0  0  0  0  0  0  0
   -3.3804   -7.3304    0.0000 C   0  0  0  0  0  0  0  0  0  0  0  0
   -4.8477   -7.6423    0.0000 C   0  0  0  0  0  0  0  0  0  0  0  0
   -6.3149   -7.9542    0.0000 N   0  0  0  0  0  0  0  0  0  0  0  0
   -2.3767   -8.4451    0.0000 C   0  0  0  0  0  0  0  0  0  0  0  0
   -2.8403   -9.8717    0.0000 C   0  0  0  0  0  0  0  0  0  0  0  0
   -3.3038  -11.2983    0.0000 F   0  0  0  0  0  0  0  0  0  0  0  0
   -1.4137  -10.3353    0.0000 F   0  0  0  0  0  0  0  0  0  0  0  0
   -4.2668   -9.4082    0.0000 F   0  0  0  0  0  0  0  0  0  0  0  0
   -0.9095   -8.1333    0.0000 C   0  0  0  0  0  0  0  0  0  0  0  0
    3.5980   -0.6937    0.0000 C   0  0  0  0  0  0  0  0  0  0  0  0
    2.3845    0.1880    0.0000 C   0  0  0  0  0  0  0  0  0  0  0  0
    2.5413    1.6798    0.0000 C   0  0  0  0  0  0  0  0  0  0  0  0
    3.9116    2.2899    0.0000 C   0  0  0  0  0  0  0  0  0  0  0  0
    4.0684    3.7817    0.0000 F   0  0  0  0  0  0  0  0  0  0  0  0
    5.1251    1.4082    0.0000 C   0  0  0  0  0  0  0  0  0  0  0  0
    4.9684   -0.0836    0.0000 C   0  0  0  0  0  0  0  0  0  0  0  0
  1  2  1  0
  2  3  2  0
  3  4  1  0
  4  5  1  0
  5  6  1  0
  6  7  1  1
  6  8  1  0
  6  9  1  0
  9 10  2  0
  9 11  1  0
 11 12  1  0
 12 13  2  0
 13 14  1  0
 14 15  2  0
 15 16  1  0
 16 17  3  0
 15 18  1  0
 18 19  1  0
 19 20  1  0
 19 21  1  0
 19 22  1  0
 18 23  2  0
  4 24  1  0
 24 25  2  0
 25 26  1  0
 26 27  2  0
 27 28  1  0
 27 29  1  0
 29 30  2  0
 30  2  1  0
 23 12  1  0
 30 24  1  0
M  END
>  <assay_chembl_id>  (706) 
CHEMBL4411916

>  <assay_description>  (706) 
Antagonist activity at human androgen receptor expressed in HEK293 cells assessed as inhibition of R1881-induced receptor transactivation after 24 hrs by luciferase reporter gene assay

>  <parent_molecule_chembl_id>  (706) 
CHEMBL4442857

>  <canonical_smiles>  (706) 
Cc1cn(C[C@](C)(O)C(=O)Nc2ccc(C#N)c(C(F)(F)F)c2)c2ccc(F)cc12

>  <standard_type>  (706) 
IC50

>  <standard_relation>  (706) 
=

>  <standard_value>  (706) 
157.0

>  <standard_units>  (706) 
nM

>  <target_pref_name>  (706) 
Androgen Receptor

>  <target_chembl_id>  (706) 
CHEMBL1871

>  <target_organism>  (706) 
Homo sapiens

>  <pchembl_median>  (706) 
5.26

$$$$
CHEMBL4554646
     RDKit          2D

 31 33  0  0  0  0  0  0  0  0999 V2000
   -3.2638   -6.1236    0.0000 C   0  0  0  0  0  0  0  0  0  0  0  0
   -2.9520   -4.6564    0.0000 C   0  0  0  0  0  0  0  0  0  0  0  0
   -4.4192   -4.3445    0.0000 O   0  0  0  0  0  0  0  0  0  0  0  0
   -2.6401   -3.1891    0.0000 C   0  0  0  0  0  0  0  0  0  0  0  0
   -3.7548   -2.1855    0.0000 N   0  0  0  0  0  0  0  0  0  0  0  0
   -5.2220   -2.4973    0.0000 C   0  0  0  0  0  0  0  0  0  0  0  0
   -5.9720   -1.1983    0.0000 C   0  0  0  0  0  0  0  0  0  0  0  0
   -4.9684   -0.0836    0.0000 C   0  0  0  0  0  0  0  0  0  0  0  0
   -5.1251    1.4082    0.0000 C   0  0  0  0  0  0  0  0  0  0  0  0
   -3.9116    2.2899    0.0000 C   0  0  0  0  0  0  0  0  0  0  0  0
   -2.5413    1.6798    0.0000 C   0  0  0  0  0  0  0  0  0  0  0  0
   -1.3278    2.5615    0.0000 N   0  0  0  0  0  4  0  0  0  0  0  0
    0.0425    1.9514    0.0000 O   0  0  0  0  0  0  0  0  0  0  0  0
   -1.4846    4.0533    0.0000 O   0  0  0  0  0  1  0  0  0  0  0  0
   -2.3845    0.1880    0.0000 C   0  0  0  0  0  0  0  0  0  0  0  0
   -3.5980   -0.6937    0.0000 C   0  0  0  0  0  0  0  0  0  0  0  0
   -1.4848   -4.9682    0.0000 C   0  0  0  0  0  0  0  0  0  0  0  0
   -0.4811   -3.8535    0.0000 O   0  0  0  0  0  0  0  0  0  0  0  0
   -1.0212   -6.3948    0.0000 N   0  0  0  0  0  0  0  0  0  0  0  0
    0.4460   -6.7067    0.0000 C   0  0  0  0  0  0  0  0  0  0  0  0
    0.9095   -8.1333    0.0000 C   0  0  0  0  0  0  0  0  0  0  0  0
    2.3767   -8.4451    0.0000 C   0  0  0  0  0  0  0  0  0  0  0  0
    3.3804   -7.3304    0.0000 C   0  0  0  0  0  0  0  0  0  0  0  0
    4.8477   -7.6423    0.0000 C   0  0  0  0  0  0  0  0  0  0  0  0
    6.3149   -7.9542    0.0000 N   0  0  0  0  0  0  0  0  0  0  0  0
    2.9169   -5.9038    0.0000 C   0  0  0  0  0  0  0  0  0  0  0  0
    3.9206   -4.7891    0.0000 C   0  0  0  0  0  0  0  0  0  0  0  0
    4.9243   -3.6744    0.0000 F   0  0  0  0  0  0  0  0  0  0  0  0
    5.0353   -5.7928    0.0000 F   0  0  0  0  0  0  0  0  0  0  0  0
    2.8059   -3.7854    0.0000 F   0  0  0  0  0  0  0  0  0  0  0  0
    1.4497   -5.5920    0.0000 C   0  0  0  0  0  0  0  0  0  0  0  0
  2  1  1  6
  2  3  1  0
  2  4  1  0
  4  5  1  0
  5  6  1  0
  6  7  2  0
  7  8  1  0
  8  9  2  0
  9 10  1  0
 10 11  2  0
 11 12  1  0
 12 13  2  0
 12 14  1  0
 11 15  1  0
 15 16  2  0
  2 17  1  0
 17 18  2  0
 17 19  1  0
 19 20  1  0
 20 21  2  0
 21 22  1  0
 22 23  2  0
 23 24  1  0
 24 25  3  0
 23 26  1  0
 26 27  1  0
 27 28  1  0
 27 29  1  0
 27 30  1  0
 26 31  2  0
 16  5  1  0
 31 20  1  0
 16  8  1  0
M  CHG  2  12   1  14  -1
M  END
>  <assay_chembl_id>  (707) 
CHEMBL4411916

>  <assay_description>  (707) 
Antagonist activity at human androgen receptor expressed in HEK293 cells assessed as inhibition of R1881-induced receptor transactivation after 24 hrs by luciferase reporter gene assay

>  <parent_molecule_chembl_id>  (707) 
CHEMBL4554646

>  <canonical_smiles>  (707) 
C[C@](O)(Cn1ccc2ccc([N+](=O)[O-])cc21)C(=O)Nc1ccc(C#N)c(C(F)(F)F)c1

>  <standard_type>  (707) 
IC50

>  <standard_relation>  (707) 
=

>  <standard_value>  (707) 
58.0

>  <standard_units>  (707) 
nM

>  <target_pref_name>  (707) 
Androgen Receptor

>  <target_chembl_id>  (707) 
CHEMBL1871

>  <target_organism>  (707) 
Homo sapiens

>  <pchembl_median>  (707) 
5.62

$$$$
CHEMBL4586748
     RDKit          2D

 31 33  0  0  0  0  0  0  0  0999 V2000
   -3.2638   -6.1236    0.0000 C   0  0  0  0  0  0  0  0  0  0  0  0
   -2.9520   -4.6564    0.0000 C   0  0  0  0  0  0  0  0  0  0  0  0
   -4.4192   -4.3445    0.0000 O   0  0  0  0  0  0  0  0  0  0  0  0
   -2.6401   -3.1891    0.0000 C   0  0  0  0  0  0  0  0  0  0  0  0
   -3.7548   -2.1855    0.0000 N   0  0  0  0  0  0  0  0  0  0  0  0
   -5.2220   -2.4973    0.0000 C   0  0  0  0  0  0  0  0  0  0  0  0
   -5.9720   -1.1983    0.0000 C   0  0  0  0  0  0  0  0  0  0  0  0
   -4.9684   -0.0836    0.0000 C   0  0  0  0  0  0  0  0  0  0  0  0
   -5.1251    1.4082    0.0000 C   0  0  0  0  0  0  0  0  0  0  0  0
   -3.9116    2.2899    0.0000 C   0  0  0  0  0  0  0  0  0  0  0  0
   -4.0684    3.7817    0.0000 N   0  0  0  0  0  4  0  0  0  0  0  0
   -2.8549    4.6634    0.0000 O   0  0  0  0  0  0  0  0  0  0  0  0
   -5.4387    4.3918    0.0000 O   0  0  0  0  0  1  0  0  0  0  0  0
   -2.5413    1.6798    0.0000 C   0  0  0  0  0  0  0  0  0  0  0  0
   -2.3845    0.1880    0.0000 C   0  0  0  0  0  0  0  0  0  0  0  0
   -3.5980   -0.6937    0.0000 C   0  0  0  0  0  0  0  0  0  0  0  0
   -1.4848   -4.9682    0.0000 C   0  0  0  0  0  0  0  0  0  0  0  0
   -0.4811   -3.8535    0.0000 O   0  0  0  0  0  0  0  0  0  0  0  0
   -1.0212   -6.3948    0.0000 N   0  0  0  0  0  0  0  0  0  0  0  0
    0.4460   -6.7067    0.0000 C   0  0  0  0  0  0  0  0  0  0  0  0
    0.9095   -8.1333    0.0000 C   0  0  0  0  0  0  0  0  0  0  0  0
    2.3767   -8.4451    0.0000 C   0  0  0  0  0  0  0  0  0  0  0  0
    3.3804   -7.3304    0.0000 C   0  0  0  0  0  0  0  0  0  0  0  0
    4.8477   -7.6423    0.0000 C   0  0  0  0  0  0  0  0  0  0  0  0
    6.3149   -7.9542    0.0000 N   0  0  0  0  0  0  0  0  0  0  0  0
    2.9169   -5.9038    0.0000 C   0  0  0  0  0  0  0  0  0  0  0  0
    3.9206   -4.7891    0.0000 C   0  0  0  0  0  0  0  0  0  0  0  0
    4.9243   -3.6744    0.0000 F   0  0  0  0  0  0  0  0  0  0  0  0
    5.0353   -5.7928    0.0000 F   0  0  0  0  0  0  0  0  0  0  0  0
    2.8059   -3.7854    0.0000 F   0  0  0  0  0  0  0  0  0  0  0  0
    1.4497   -5.5920    0.0000 C   0  0  0  0  0  0  0  0  0  0  0  0
  2  1  1  6
  2  3  1  0
  2  4  1  0
  4  5  1  0
  5  6  1  0
  6  7  2  0
  7  8  1  0
  8  9  2  0
  9 10  1  0
 10 11  1  0
 11 12  2  0
 11 13  1  0
 10 14  2  0
 14 15  1  0
 15 16  2  0
  2 17  1  0
 17 18  2  0
 17 19  1  0
 19 20  1  0
 20 21  2  0
 21 22  1  0
 22 23  2  0
 23 24  1  0
 24 25  3  0
 23 26  1  0
 26 27  1  0
 27 28  1  0
 27 29  1  0
 27 30  1  0
 26 31  2  0
 16  5  1  0
 31 20  1  0
 16  8  1  0
M  CHG  2  11   1  13  -1
M  END
>  <assay_chembl_id>  (708) 
CHEMBL4411916

>  <assay_description>  (708) 
Antagonist activity at human androgen receptor expressed in HEK293 cells assessed as inhibition of R1881-induced receptor transactivation after 24 hrs by luciferase reporter gene assay

>  <parent_molecule_chembl_id>  (708) 
CHEMBL4586748

>  <canonical_smiles>  (708) 
C[C@](O)(Cn1ccc2cc([N+](=O)[O-])ccc21)C(=O)Nc1ccc(C#N)c(C(F)(F)F)c1

>  <standard_type>  (708) 
IC50

>  <standard_relation>  (708) 
=

>  <standard_value>  (708) 
88.0

>  <standard_units>  (708) 
nM

>  <target_pref_name>  (708) 
Androgen Receptor

>  <target_chembl_id>  (708) 
CHEMBL1871

>  <target_organism>  (708) 
Homo sapiens

>  <pchembl_median>  (708) 
5.55

$$$$
CHEMBL4474096
     RDKit          2D

 29 31  0  0  0  0  0  0  0  0999 V2000
   -3.2638   -6.1236    0.0000 C   0  0  0  0  0  0  0  0  0  0  0  0
   -2.9520   -4.6564    0.0000 C   0  0  0  0  0  0  0  0  0  0  0  0
   -4.4192   -4.3445    0.0000 O   0  0  0  0  0  0  0  0  0  0  0  0
   -2.6401   -3.1891    0.0000 C   0  0  0  0  0  0  0  0  0  0  0  0
   -3.7548   -2.1855    0.0000 N   0  0  0  0  0  0  0  0  0  0  0  0
   -5.2220   -2.4973    0.0000 C   0  0  0  0  0  0  0  0  0  0  0  0
   -5.9720   -1.1983    0.0000 C   0  0  0  0  0  0  0  0  0  0  0  0
   -4.9684   -0.0836    0.0000 C   0  0  0  0  0  0  0  0  0  0  0  0
   -5.1251    1.4082    0.0000 C   0  0  0  0  0  0  0  0  0  0  0  0
   -3.9116    2.2899    0.0000 C   0  0  0  0  0  0  0  0  0  0  0  0
   -2.5413    1.6798    0.0000 C   0  0  0  0  0  0  0  0  0  0  0  0
   -1.3278    2.5615    0.0000 F   0  0  0  0  0  0  0  0  0  0  0  0
   -2.3845    0.1880    0.0000 C   0  0  0  0  0  0  0  0  0  0  0  0
   -3.5980   -0.6937    0.0000 C   0  0  0  0  0  0  0  0  0  0  0  0
   -1.4848   -4.9682    0.0000 C   0  0  0  0  0  0  0  0  0  0  0  0
   -0.4811   -3.8535    0.0000 O   0  0  0  0  0  0  0  0  0  0  0  0
   -1.0212   -6.3948    0.0000 N   0  0  0  0  0  0  0  0  0  0  0  0
    0.4460   -6.7067    0.0000 C   0  0  0  0  0  0  0  0  0  0  0  0
    0.9095   -8.1333    0.0000 C   0  0  0  0  0  0  0  0  0  0  0  0
    2.3767   -8.4451    0.0000 C   0  0  0  0  0  0  0  0  0  0  0  0
    3.3804   -7.3304    0.0000 C   0  0  0  0  0  0  0  0  0  0  0  0
    4.8477   -7.6423    0.0000 C   0  0  0  0  0  0  0  0  0  0  0  0
    6.3149   -7.9542    0.0000 N   0  0  0  0  0  0  0  0  0  0  0  0
    2.9169   -5.9038    0.0000 C   0  0  0  0  0  0  0  0  0  0  0  0
    3.9206   -4.7891    0.0000 C   0  0  0  0  0  0  0  0  0  0  0  0
    4.9243   -3.6744    0.0000 F   0  0  0  0  0  0  0  0  0  0  0  0
    5.0353   -5.7928    0.0000 F   0  0  0  0  0  0  0  0  0  0  0  0
    2.8059   -3.7854    0.0000 F   0  0  0  0  0  0  0  0  0  0  0  0
    1.4497   -5.5920    0.0000 C   0  0  0  0  0  0  0  0  0  0  0  0
  2  1  1  6
  2  3  1  0
  2  4  1  0
  4  5  1  0
  5  6  1  0
  6  7  2  0
  7  8  1  0
  8  9  2  0
  9 10  1  0
 10 11  2  0
 11 12  1  0
 11 13  1  0
 13 14  2  0
  2 15  1  0
 15 16  2  0
 15 17  1  0
 17 18  1  0
 18 19  2  0
 19 20  1  0
 20 21  2  0
 21 22  1  0
 22 23  3  0
 21 24  1  0
 24 25  1  0
 25 26  1  0
 25 27  1  0
 25 28  1  0
 24 29  2  0
 14  5  1  0
 29 18  1  0
 14  8  1  0
M  END
>  <assay_chembl_id>  (709) 
CHEMBL4411916

>  <assay_description>  (709) 
Antagonist activity at human androgen receptor expressed in HEK293 cells assessed as inhibition of R1881-induced receptor transactivation after 24 hrs by luciferase reporter gene assay

>  <parent_molecule_chembl_id>  (709) 
CHEMBL4474096

>  <canonical_smiles>  (709) 
C[C@](O)(Cn1ccc2ccc(F)cc21)C(=O)Nc1ccc(C#N)c(C(F)(F)F)c1

>  <standard_type>  (709) 
IC50

>  <standard_relation>  (709) 
=

>  <standard_value>  (709) 
85.0

>  <standard_units>  (709) 
nM

>  <target_pref_name>  (709) 
Androgen Receptor

>  <target_chembl_id>  (709) 
CHEMBL1871

>  <target_organism>  (709) 
Homo sapiens

>  <pchembl_median>  (709) 
5.34

$$$$
CHEMBL4456765
     RDKit          2D

 29 31  0  0  0  0  0  0  0  0999 V2000
   -3.2638   -6.1236    0.0000 C   0  0  0  0  0  0  0  0  0  0  0  0
   -2.9520   -4.6564    0.0000 C   0  0  0  0  0  0  0  0  0  0  0  0
   -4.4192   -4.3445    0.0000 O   0  0  0  0  0  0  0  0  0  0  0  0
   -2.6401   -3.1891    0.0000 C   0  0  0  0  0  0  0  0  0  0  0  0
   -3.7548   -2.1855    0.0000 N   0  0  0  0  0  0  0  0  0  0  0  0
   -5.2220   -2.4973    0.0000 C   0  0  0  0  0  0  0  0  0  0  0  0
   -5.9720   -1.1983    0.0000 C   0  0  0  0  0  0  0  0  0  0  0  0
   -4.9684   -0.0836    0.0000 C   0  0  0  0  0  0  0  0  0  0  0  0
   -5.1251    1.4082    0.0000 C   0  0  0  0  0  0  0  0  0  0  0  0
   -6.4955    2.0183    0.0000 F   0  0  0  0  0  0  0  0  0  0  0  0
   -3.9116    2.2899    0.0000 C   0  0  0  0  0  0  0  0  0  0  0  0
   -2.5413    1.6798    0.0000 C   0  0  0  0  0  0  0  0  0  0  0  0
   -2.3845    0.1880    0.0000 C   0  0  0  0  0  0  0  0  0  0  0  0
   -3.5980   -0.6937    0.0000 C   0  0  0  0  0  0  0  0  0  0  0  0
   -1.4848   -4.9682    0.0000 C   0  0  0  0  0  0  0  0  0  0  0  0
   -0.4811   -3.8535    0.0000 O   0  0  0  0  0  0  0  0  0  0  0  0
   -1.0212   -6.3948    0.0000 N   0  0  0  0  0  0  0  0  0  0  0  0
    0.4460   -6.7067    0.0000 C   0  0  0  0  0  0  0  0  0  0  0  0
    0.9095   -8.1333    0.0000 C   0  0  0  0  0  0  0  0  0  0  0  0
    2.3767   -8.4451    0.0000 C   0  0  0  0  0  0  0  0  0  0  0  0
    3.3804   -7.3304    0.0000 C   0  0  0  0  0  0  0  0  0  0  0  0
    4.8477   -7.6423    0.0000 C   0  0  0  0  0  0  0  0  0  0  0  0
    6.3149   -7.9542    0.0000 N   0  0  0  0  0  0  0  0  0  0  0  0
    2.9169   -5.9038    0.0000 C   0  0  0  0  0  0  0  0  0  0  0  0
    3.9206   -4.7891    0.0000 C   0  0  0  0  0  0  0  0  0  0  0  0
    4.9243   -3.6744    0.0000 F   0  0  0  0  0  0  0  0  0  0  0  0
    5.0353   -5.7928    0.0000 F   0  0  0  0  0  0  0  0  0  0  0  0
    2.8059   -3.7854    0.0000 F   0  0  0  0  0  0  0  0  0  0  0  0
    1.4497   -5.5920    0.0000 C   0  0  0  0  0  0  0  0  0  0  0  0
  2  1  1  6
  2  3  1  0
  2  4  1  0
  4  5  1  0
  5  6  1  0
  6  7  2  0
  7  8  1  0
  8  9  2  0
  9 10  1  0
  9 11  1  0
 11 12  2  0
 12 13  1  0
 13 14  2  0
  2 15  1  0
 15 16  2  0
 15 17  1  0
 17 18  1  0
 18 19  2  0
 19 20  1  0
 20 21  2  0
 21 22  1  0
 22 23  3  0
 21 24  1  0
 24 25  1  0
 25 26  1  0
 25 27  1  0
 25 28  1  0
 24 29  2  0
 14  5  1  0
 29 18  1  0
 14  8  1  0
M  END
>  <assay_chembl_id>  (710) 
CHEMBL4411916

>  <assay_description>  (710) 
Antagonist activity at human androgen receptor expressed in HEK293 cells assessed as inhibition of R1881-induced receptor transactivation after 24 hrs by luciferase reporter gene assay

>  <parent_molecule_chembl_id>  (710) 
CHEMBL4456765

>  <canonical_smiles>  (710) 
C[C@](O)(Cn1ccc2c(F)cccc21)C(=O)Nc1ccc(C#N)c(C(F)(F)F)c1

>  <standard_type>  (710) 
IC50

>  <standard_relation>  (710) 
=

>  <standard_value>  (710) 
127.0

>  <standard_units>  (710) 
nM

>  <target_pref_name>  (710) 
Androgen Receptor

>  <target_chembl_id>  (710) 
CHEMBL1871

>  <target_organism>  (710) 
Homo sapiens

>  <pchembl_median>  (710) 
5.64

$$$$
CHEMBL4446471
     RDKit          2D

 28 30  0  0  0  0  0  0  0  0999 V2000
   -3.2638   -6.1236    0.0000 C   0  0  0  0  0  0  0  0  0  0  0  0
   -2.9520   -4.6564    0.0000 C   0  0  0  0  0  0  0  0  0  0  0  0
   -4.4192   -4.3445    0.0000 O   0  0  0  0  0  0  0  0  0  0  0  0
   -2.6401   -3.1891    0.0000 C   0  0  0  0  0  0  0  0  0  0  0  0
   -3.7548   -2.1855    0.0000 N   0  0  0  0  0  0  0  0  0  0  0  0
   -5.2220   -2.4973    0.0000 C   0  0  0  0  0  0  0  0  0  0  0  0
   -5.9720   -1.1983    0.0000 C   0  0  0  0  0  0  0  0  0  0  0  0
   -4.9684   -0.0836    0.0000 C   0  0  0  0  0  0  0  0  0  0  0  0
   -5.1251    1.4082    0.0000 C   0  0  0  0  0  0  0  0  0  0  0  0
   -3.9116    2.2899    0.0000 C   0  0  0  0  0  0  0  0  0  0  0  0
   -2.5413    1.6798    0.0000 C   0  0  0  0  0  0  0  0  0  0  0  0
   -2.3845    0.1880    0.0000 C   0  0  0  0  0  0  0  0  0  0  0  0
   -3.5980   -0.6937    0.0000 C   0  0  0  0  0  0  0  0  0  0  0  0
   -1.4848   -4.9682    0.0000 C   0  0  0  0  0  0  0  0  0  0  0  0
   -0.4811   -3.8535    0.0000 O   0  0  0  0  0  0  0  0  0  0  0  0
   -1.0212   -6.3948    0.0000 N   0  0  0  0  0  0  0  0  0  0  0  0
    0.4460   -6.7067    0.0000 C   0  0  0  0  0  0  0  0  0  0  0  0
    0.9095   -8.1333    0.0000 C   0  0  0  0  0  0  0  0  0  0  0  0
    2.3767   -8.4451    0.0000 C   0  0  0  0  0  0  0  0  0  0  0  0
    3.3804   -7.3304    0.0000 C   0  0  0  0  0  0  0  0  0  0  0  0
    4.8477   -7.6423    0.0000 C   0  0  0  0  0  0  0  0  0  0  0  0
    6.3149   -7.9542    0.0000 N   0  0  0  0  0  0  0  0  0  0  0  0
    2.9169   -5.9038    0.0000 C   0  0  0  0  0  0  0  0  0  0  0  0
    3.9206   -4.7891    0.0000 C   0  0  0  0  0  0  0  0  0  0  0  0
    4.9243   -3.6744    0.0000 F   0  0  0  0  0  0  0  0  0  0  0  0
    5.0353   -5.7928    0.0000 F   0  0  0  0  0  0  0  0  0  0  0  0
    2.8059   -3.7854    0.0000 F   0  0  0  0  0  0  0  0  0  0  0  0
    1.4497   -5.5920    0.0000 C   0  0  0  0  0  0  0  0  0  0  0  0
  2  1  1  6
  2  3  1  0
  2  4  1  0
  4  5  1  0
  5  6  1  0
  6  7  2  0
  7  8  1  0
  8  9  2  0
  9 10  1  0
 10 11  2  0
 11 12  1  0
 12 13  2  0
  2 14  1  0
 14 15  2  0
 14 16  1  0
 16 17  1  0
 17 18  2  0
 18 19  1  0
 19 20  2  0
 20 21  1  0
 21 22  3  0
 20 23  1  0
 23 24  1  0
 24 25  1  0
 24 26  1  0
 24 27  1  0
 23 28  2  0
 13  5  1  0
 28 17  1  0
 13  8  1  0
M  END
>  <assay_chembl_id>  (711) 
CHEMBL4411916

>  <assay_description>  (711) 
Antagonist activity at human androgen receptor expressed in HEK293 cells assessed as inhibition of R1881-induced receptor transactivation after 24 hrs by luciferase reporter gene assay

>  <parent_molecule_chembl_id>  (711) 
CHEMBL4446471

>  <canonical_smiles>  (711) 
C[C@](O)(Cn1ccc2ccccc21)C(=O)Nc1ccc(C#N)c(C(F)(F)F)c1

>  <standard_type>  (711) 
IC50

>  <standard_relation>  (711) 
=

>  <standard_value>  (711) 
64.0

>  <standard_units>  (711) 
nM

>  <target_pref_name>  (711) 
Androgen Receptor

>  <target_chembl_id>  (711) 
CHEMBL1871

>  <target_organism>  (711) 
Homo sapiens

>  <pchembl_median>  (711) 
6.04

$$$$
CHEMBL4475765
     RDKit          2D

 29 31  0  0  0  0  0  0  0  0999 V2000
   -3.2638   -6.1236    0.0000 C   0  0  0  0  0  0  0  0  0  0  0  0
   -2.9520   -4.6564    0.0000 C   0  0  0  0  0  0  0  0  0  0  0  0
   -4.4192   -4.3445    0.0000 O   0  0  0  0  0  0  0  0  0  0  0  0
   -2.6401   -3.1891    0.0000 C   0  0  0  0  0  0  0  0  0  0  0  0
   -3.7548   -2.1855    0.0000 N   0  0  0  0  0  0  0  0  0  0  0  0
   -5.2220   -2.4973    0.0000 C   0  0  0  0  0  0  0  0  0  0  0  0
   -5.9720   -1.1983    0.0000 C   0  0  0  0  0  0  0  0  0  0  0  0
   -4.9684   -0.0836    0.0000 C   0  0  0  0  0  0  0  0  0  0  0  0
   -5.1251    1.4082    0.0000 C   0  0  0  0  0  0  0  0  0  0  0  0
   -3.9116    2.2899    0.0000 C   0  0  0  0  0  0  0  0  0  0  0  0
   -4.0684    3.7817    0.0000 F   0  0  0  0  0  0  0  0  0  0  0  0
   -2.5413    1.6798    0.0000 C   0  0  0  0  0  0  0  0  0  0  0  0
   -2.3845    0.1880    0.0000 C   0  0  0  0  0  0  0  0  0  0  0  0
   -3.5980   -0.6937    0.0000 C   0  0  0  0  0  0  0  0  0  0  0  0
   -1.4848   -4.9682    0.0000 C   0  0  0  0  0  0  0  0  0  0  0  0
   -0.4811   -3.8535    0.0000 O   0  0  0  0  0  0  0  0  0  0  0  0
   -1.0212   -6.3948    0.0000 N   0  0  0  0  0  0  0  0  0  0  0  0
    0.4460   -6.7067    0.0000 C   0  0  0  0  0  0  0  0  0  0  0  0
    0.9095   -8.1333    0.0000 C   0  0  0  0  0  0  0  0  0  0  0  0
    2.3767   -8.4451    0.0000 C   0  0  0  0  0  0  0  0  0  0  0  0
    3.3804   -7.3304    0.0000 C   0  0  0  0  0  0  0  0  0  0  0  0
    4.8477   -7.6423    0.0000 C   0  0  0  0  0  0  0  0  0  0  0  0
    6.3149   -7.9542    0.0000 N   0  0  0  0  0  0  0  0  0  0  0  0
    2.9169   -5.9038    0.0000 C   0  0  0  0  0  0  0  0  0  0  0  0
    3.9206   -4.7891    0.0000 C   0  0  0  0  0  0  0  0  0  0  0  0
    4.9243   -3.6744    0.0000 F   0  0  0  0  0  0  0  0  0  0  0  0
    5.0353   -5.7928    0.0000 F   0  0  0  0  0  0  0  0  0  0  0  0
    2.8059   -3.7854    0.0000 F   0  0  0  0  0  0  0  0  0  0  0  0
    1.4497   -5.5920    0.0000 C   0  0  0  0  0  0  0  0  0  0  0  0
  2  1  1  1
  2  3  1  0
  2  4  1  0
  4  5  1  0
  5  6  1  0
  6  7  2  0
  7  8  1  0
  8  9  2  0
  9 10  1  0
 10 11  1  0
 10 12  2  0
 12 13  1  0
 13 14  2  0
  2 15  1  0
 15 16  2  0
 15 17  1  0
 17 18  1  0
 18 19  2  0
 19 20  1  0
 20 21  2  0
 21 22  1  0
 22 23  3  0
 21 24  1  0
 24 25  1  0
 25 26  1  0
 25 27  1  0
 25 28  1  0
 24 29  2  0
 14  5  1  0
 29 18  1  0
 14  8  1  0
M  END
>  <assay_chembl_id>  (712) 
CHEMBL4411916

>  <assay_description>  (712) 
Antagonist activity at human androgen receptor expressed in HEK293 cells assessed as inhibition of R1881-induced receptor transactivation after 24 hrs by luciferase reporter gene assay

>  <parent_molecule_chembl_id>  (712) 
CHEMBL4475765

>  <canonical_smiles>  (712) 
C[C@@](O)(Cn1ccc2cc(F)ccc21)C(=O)Nc1ccc(C#N)c(C(F)(F)F)c1

>  <standard_type>  (712) 
IC50

>  <standard_relation>  (712) 
=

>  <standard_value>  (712) 
598.0

>  <standard_units>  (712) 
nM

>  <target_pref_name>  (712) 
Androgen Receptor

>  <target_chembl_id>  (712) 
CHEMBL1871

>  <target_organism>  (712) 
Homo sapiens

>  <pchembl_median>  (712) 
4.74

$$$$
CHEMBL4444904
     RDKit          2D

 29 31  0  0  0  0  0  0  0  0999 V2000
   -3.2638   -6.1236    0.0000 C   0  0  0  0  0  0  0  0  0  0  0  0
   -2.9520   -4.6564    0.0000 C   0  0  0  0  0  0  0  0  0  0  0  0
   -4.4192   -4.3445    0.0000 O   0  0  0  0  0  0  0  0  0  0  0  0
   -2.6401   -3.1891    0.0000 C   0  0  0  0  0  0  0  0  0  0  0  0
   -3.7548   -2.1855    0.0000 N   0  0  0  0  0  0  0  0  0  0  0  0
   -5.2220   -2.4973    0.0000 C   0  0  0  0  0  0  0  0  0  0  0  0
   -5.9720   -1.1983    0.0000 C   0  0  0  0  0  0  0  0  0  0  0  0
   -4.9684   -0.0836    0.0000 C   0  0  0  0  0  0  0  0  0  0  0  0
   -5.1251    1.4082    0.0000 C   0  0  0  0  0  0  0  0  0  0  0  0
   -3.9116    2.2899    0.0000 C   0  0  0  0  0  0  0  0  0  0  0  0
   -4.0684    3.7817    0.0000 F   0  0  0  0  0  0  0  0  0  0  0  0
   -2.5413    1.6798    0.0000 C   0  0  0  0  0  0  0  0  0  0  0  0
   -2.3845    0.1880    0.0000 C   0  0  0  0  0  0  0  0  0  0  0  0
   -3.5980   -0.6937    0.0000 C   0  0  0  0  0  0  0  0  0  0  0  0
   -1.4848   -4.9682    0.0000 C   0  0  0  0  0  0  0  0  0  0  0  0
   -0.4811   -3.8535    0.0000 O   0  0  0  0  0  0  0  0  0  0  0  0
   -1.0212   -6.3948    0.0000 N   0  0  0  0  0  0  0  0  0  0  0  0
    0.4460   -6.7067    0.0000 C   0  0  0  0  0  0  0  0  0  0  0  0
    0.9095   -8.1333    0.0000 C   0  0  0  0  0  0  0  0  0  0  0  0
    2.3767   -8.4451    0.0000 C   0  0  0  0  0  0  0  0  0  0  0  0
    3.3804   -7.3304    0.0000 C   0  0  0  0  0  0  0  0  0  0  0  0
    4.8477   -7.6423    0.0000 C   0  0  0  0  0  0  0  0  0  0  0  0
    6.3149   -7.9542    0.0000 N   0  0  0  0  0  0  0  0  0  0  0  0
    2.9169   -5.9038    0.0000 C   0  0  0  0  0  0  0  0  0  0  0  0
    3.9206   -4.7891    0.0000 C   0  0  0  0  0  0  0  0  0  0  0  0
    4.9243   -3.6744    0.0000 F   0  0  0  0  0  0  0  0  0  0  0  0
    5.0353   -5.7928    0.0000 F   0  0  0  0  0  0  0  0  0  0  0  0
    2.8059   -3.7854    0.0000 F   0  0  0  0  0  0  0  0  0  0  0  0
    1.4497   -5.5920    0.0000 C   0  0  0  0  0  0  0  0  0  0  0  0
  2  1  1  6
  2  3  1  0
  2  4  1  0
  4  5  1  0
  5  6  1  0
  6  7  2  0
  7  8  1  0
  8  9  2  0
  9 10  1  0
 10 11  1  0
 10 12  2  0
 12 13  1  0
 13 14  2  0
  2 15  1  0
 15 16  2  0
 15 17  1  0
 17 18  1  0
 18 19  2  0
 19 20  1  0
 20 21  2  0
 21 22  1  0
 22 23  3  0
 21 24  1  0
 24 25  1  0
 25 26  1  0
 25 27  1  0
 25 28  1  0
 24 29  2  0
 14  5  1  0
 29 18  1  0
 14  8  1  0
M  END
>  <assay_chembl_id>  (713) 
CHEMBL4411916

>  <assay_description>  (713) 
Antagonist activity at human androgen receptor expressed in HEK293 cells assessed as inhibition of R1881-induced receptor transactivation after 24 hrs by luciferase reporter gene assay

>  <parent_molecule_chembl_id>  (713) 
CHEMBL4444904

>  <canonical_smiles>  (713) 
C[C@](O)(Cn1ccc2cc(F)ccc21)C(=O)Nc1ccc(C#N)c(C(F)(F)F)c1

>  <standard_type>  (713) 
IC50

>  <standard_relation>  (713) 
=

>  <standard_value>  (713) 
85.0

>  <standard_units>  (713) 
nM

>  <target_pref_name>  (713) 
Androgen Receptor

>  <target_chembl_id>  (713) 
CHEMBL1871

>  <target_organism>  (713) 
Homo sapiens

>  <pchembl_median>  (713) 
5.22

$$$$
CHEMBL4584527
     RDKit          2D

 35 37  0  0  0  0  0  0  0  0999 V2000
   -1.0981   -8.1962    0.0000 C   0  0  0  0  0  0  0  0  0  0  0  0
    0.2010   -7.4462    0.0000 N   0  0  0  0  0  0  0  0  0  0  0  0
    0.2010   -5.9462    0.0000 C   0  0  0  0  0  0  0  0  0  0  0  0
    1.5000   -5.1962    0.0000 C   0  0  0  0  0  0  0  0  0  0  0  0
    2.7990   -4.4462    0.0000 C   0  0  0  0  0  0  0  0  0  0  0  0
    2.2500   -6.4952    0.0000 O   0  0  0  0  0  0  0  0  0  0  0  0
    0.7500   -3.8971    0.0000 C   0  0  0  0  0  0  0  0  0  0  0  0
   -0.7500   -3.8971    0.0000 O   0  0  0  0  0  0  0  0  0  0  0  0
    1.5000   -2.5981    0.0000 N   0  0  0  0  0  0  0  0  0  0  0  0
    0.7500   -1.2990    0.0000 C   0  0  0  0  0  0  0  0  0  0  0  0
    1.5000    0.0000    0.0000 C   0  0  0  0  0  0  0  0  0  0  0  0
    0.7500    1.2990    0.0000 C   0  0  0  0  0  0  0  0  0  0  0  0
   -0.7500    1.2990    0.0000 C   0  0  0  0  0  0  0  0  0  0  0  0
   -1.5000    2.5981    0.0000 C   0  0  0  0  0  0  0  0  0  0  0  0
   -2.2500    3.8971    0.0000 N   0  0  0  0  0  0  0  0  0  0  0  0
   -1.5000    0.0000    0.0000 C   0  0  0  0  0  0  0  0  0  0  0  0
   -3.0000    0.0000    0.0000 C   0  0  0  0  0  0  0  0  0  0  0  0
   -4.5000    0.0000    0.0000 F   0  0  0  0  0  0  0  0  0  0  0  0
   -3.0000   -1.5000    0.0000 F   0  0  0  0  0  0  0  0  0  0  0  0
   -3.0000    1.5000    0.0000 F   0  0  0  0  0  0  0  0  0  0  0  0
   -0.7500   -1.2990    0.0000 C   0  0  0  0  0  0  0  0  0  0  0  0
    1.5000   -8.1962    0.0000 C   0  0  0  0  0  0  0  0  0  0  0  0
    1.5000   -9.6962    0.0000 C   0  0  0  0  0  0  0  0  0  0  0  0
    2.7990  -10.4462    0.0000 C   0  0  0  0  0  0  0  0  0  0  0  0
    4.0981   -9.6962    0.0000 C   0  0  0  0  0  0  0  0  0  0  0  0
    5.3971  -10.4462    0.0000 C   0  0  0  0  0  0  0  0  0  0  0  0
    6.6962  -11.1962    0.0000 N   0  0  0  0  0  0  0  0  0  0  0  0
    4.0981   -8.1962    0.0000 C   0  0  0  0  0  0  0  0  0  0  0  0
    5.3971   -7.4462    0.0000 C   0  0  0  0  0  0  0  0  0  0  0  0
    6.6962   -8.1962    0.0000 C   0  0  0  0  0  0  0  0  0  0  0  0
    7.9952   -7.4462    0.0000 C   0  0  0  0  0  0  0  0  0  0  0  0
    7.9952   -5.9462    0.0000 C   0  0  0  0  0  0  0  0  0  0  0  0
    6.6962   -5.1962    0.0000 C   0  0  0  0  0  0  0  0  0  0  0  0
    5.3971   -5.9462    0.0000 C   0  0  0  0  0  0  0  0  0  0  0  0
    2.7990   -7.4462    0.0000 C   0  0  0  0  0  0  0  0  0  0  0  0
  1  2  1  0
  2  3  1  0
  3  4  1  0
  4  5  1  6
  4  6  1  0
  4  7  1  0
  7  8  2  0
  7  9  1  0
  9 10  1  0
 10 11  2  0
 11 12  1  0
 12 13  2  0
 13 14  1  0
 14 15  3  0
 13 16  1  0
 16 17  1  0
 17 18  1  0
 17 19  1  0
 17 20  1  0
 16 21  2  0
  2 22  1  0
 22 23  2  0
 23 24  1  0
 24 25  2  0
 25 26  1  0
 26 27  3  0
 25 28  1  0
 28 29  1  0
 29 30  2  0
 30 31  1  0
 31 32  2  0
 32 33  1  0
 33 34  2  0
 28 35  2  0
 21 10  1  0
 35 22  1  0
 34 29  1  0
M  END
>  <assay_chembl_id>  (714) 
CHEMBL4411916

>  <assay_description>  (714) 
Antagonist activity at human androgen receptor expressed in HEK293 cells assessed as inhibition of R1881-induced receptor transactivation after 24 hrs by luciferase reporter gene assay

>  <parent_molecule_chembl_id>  (714) 
CHEMBL4584527

>  <canonical_smiles>  (714) 
CN(C[C@](C)(O)C(=O)Nc1ccc(C#N)c(C(F)(F)F)c1)c1ccc(C#N)c(-c2ccccc2)c1

>  <standard_type>  (714) 
IC50

>  <standard_relation>  (714) 
=

>  <standard_value>  (714) 
48.0

>  <standard_units>  (714) 
nM

>  <target_pref_name>  (714) 
Androgen Receptor

>  <target_chembl_id>  (714) 
CHEMBL1871

>  <target_organism>  (714) 
Homo sapiens

>  <pchembl_median>  (714) 
6.09

$$$$
CHEMBL4571680
     RDKit          2D

 28 29  0  0  0  0  0  0  0  0999 V2000
    2.2500   -6.4952    0.0000 C   0  0  0  0  0  0  0  0  0  0  0  0
    1.5000   -5.1962    0.0000 C   0  0  0  0  0  0  0  0  0  0  0  0
    0.2010   -5.9462    0.0000 O   0  0  0  0  0  0  0  0  0  0  0  0
    0.7500   -3.8971    0.0000 C   0  0  0  0  0  0  0  0  0  0  0  0
    1.5000   -2.5981    0.0000 C   0  0  0  0  0  0  0  0  0  0  0  0
    0.7500   -1.2990    0.0000 C   0  0  0  0  0  0  0  0  0  0  0  0
    1.5000    0.0000    0.0000 C   0  0  0  0  0  0  0  0  0  0  0  0
    0.7500    1.2990    0.0000 C   0  0  0  0  0  0  0  0  0  0  0  0
   -0.7500    1.2990    0.0000 C   0  0  0  0  0  0  0  0  0  0  0  0
   -1.5000    2.5981    0.0000 N   0  0  0  0  0  0  0  0  0  0  0  0
   -1.5000    0.0000    0.0000 C   0  0  0  0  0  0  0  0  0  0  0  0
   -0.7500   -1.2990    0.0000 C   0  0  0  0  0  0  0  0  0  0  0  0
    2.7990   -4.4462    0.0000 C   0  0  0  0  0  0  0  0  0  0  0  0
    2.7990   -2.9462    0.0000 O   0  0  0  0  0  0  0  0  0  0  0  0
    4.0981   -5.1962    0.0000 N   0  0  0  0  0  0  0  0  0  0  0  0
    5.3971   -4.4462    0.0000 C   0  0  0  0  0  0  0  0  0  0  0  0
    6.6962   -5.1962    0.0000 C   0  0  0  0  0  0  0  0  0  0  0  0
    7.9952   -4.4462    0.0000 C   0  0  0  0  0  0  0  0  0  0  0  0
    7.9952   -2.9462    0.0000 C   0  0  0  0  0  0  0  0  0  0  0  0
    9.2942   -2.1962    0.0000 N   0  0  0  0  0  4  0  0  0  0  0  0
    9.2942   -0.6962    0.0000 O   0  0  0  0  0  0  0  0  0  0  0  0
   10.5933   -2.9462    0.0000 O   0  0  0  0  0  1  0  0  0  0  0  0
    6.6962   -2.1962    0.0000 C   0  0  0  0  0  0  0  0  0  0  0  0
    6.6962   -0.6962    0.0000 C   0  0  0  0  0  0  0  0  0  0  0  0
    6.6962    0.8038    0.0000 F   0  0  0  0  0  0  0  0  0  0  0  0
    5.1962   -0.6962    0.0000 F   0  0  0  0  0  0  0  0  0  0  0  0
    8.1962   -0.6962    0.0000 F   0  0  0  0  0  0  0  0  0  0  0  0
    5.3971   -2.9462    0.0000 C   0  0  0  0  0  0  0  0  0  0  0  0
  1  2  1  0
  2  3  1  0
  2  4  1  0
  4  5  1  0
  5  6  1  0
  6  7  2  0
  7  8  1  0
  8  9  2  0
  9 10  1  0
  9 11  1  0
 11 12  2  0
  2 13  1  0
 13 14  2  0
 13 15  1  0
 15 16  1  0
 16 17  2  0
 17 18  1  0
 18 19  2  0
 19 20  1  0
 20 21  2  0
 20 22  1  0
 19 23  1  0
 23 24  1  0
 24 25  1  0
 24 26  1  0
 24 27  1  0
 23 28  2  0
 12  6  1  0
 28 16  1  0
M  CHG  2  20   1  22  -1
M  END
>  <assay_chembl_id>  (715) 
CHEMBL4411916

>  <assay_description>  (715) 
Antagonist activity at human androgen receptor expressed in HEK293 cells assessed as inhibition of R1881-induced receptor transactivation after 24 hrs by luciferase reporter gene assay

>  <parent_molecule_chembl_id>  (715) 
CHEMBL4571680

>  <canonical_smiles>  (715) 
CC(O)(CCc1ccc(N)cc1)C(=O)Nc1ccc([N+](=O)[O-])c(C(F)(F)F)c1

>  <standard_type>  (715) 
IC50

>  <standard_relation>  (715) 
=

>  <standard_value>  (715) 
392.0

>  <standard_units>  (715) 
nM

>  <target_pref_name>  (715) 
Androgen Receptor

>  <target_chembl_id>  (715) 
CHEMBL1871

>  <target_organism>  (715) 
Homo sapiens

>  <pchembl_median>  (715) 
5.68

$$$$
CHEMBL4528089
     RDKit          2D

 18 21  0  0  0  0  0  0  0  0999 V2000
    1.5000    0.0000    0.0000 C   0  0  0  0  0  0  0  0  0  0  0  0
    0.7500   -1.2990    0.0000 C   0  0  0  0  0  0  0  0  0  0  0  0
   -0.7500   -1.2990    0.0000 C   0  0  0  0  0  0  0  0  0  0  0  0
   -1.5000    0.0000    0.0000 C   0  0  0  0  0  0  0  0  0  0  0  0
   -0.7500    1.2990    0.0000 C   0  0  0  0  0  0  0  0  0  0  0  0
    0.7500    1.2990    0.0000 C   0  0  0  0  0  0  0  0  0  0  0  0
   -1.7537    2.4138    0.0000 C   0  0  0  0  0  0  0  0  0  0  0  0
   -3.1240    1.8037    0.0000 C   0  0  0  0  0  0  0  0  0  0  0  0
   -4.4231    2.5537    0.0000 C   0  0  0  0  0  0  0  0  0  0  0  0
   -4.5798    4.0454    0.0000 C   0  0  0  0  0  0  0  0  0  0  0  0
   -6.0471    4.3573    0.0000 N   0  0  0  0  0  0  0  0  0  0  0  0
   -6.7971    3.0583    0.0000 C   0  0  0  0  0  0  0  0  0  0  0  0
   -8.2643    2.7464    0.0000 C   0  0  0  0  0  0  0  0  0  0  0  0
   -8.7278    1.3198    0.0000 C   0  0  0  0  0  0  0  0  0  0  0  0
   -7.7241    0.2051    0.0000 C   0  0  0  0  0  0  0  0  0  0  0  0
   -6.2569    0.5170    0.0000 C   0  0  0  0  0  0  0  0  0  0  0  0
   -5.7934    1.9435    0.0000 C   0  0  0  0  0  0  0  0  0  0  0  0
   -2.9672    0.3119    0.0000 N   0  0  0  0  0  0  0  0  0  0  0  0
  1  2  2  0
  2  3  1  0
  3  4  2  0
  4  5  1  0
  5  6  2  0
  5  7  1  0
  7  8  1  0
  8  9  1  0
  9 10  2  0
 10 11  1  0
 11 12  1  0
 12 13  2  0
 13 14  1  0
 14 15  2  0
 15 16  1  0
 16 17  2  0
  8 18  1  0
  6  1  1  0
 17  9  1  0
 18  4  1  0
 17 12  1  0
M  END
>  <assay_chembl_id>  (716) 
CHEMBL4480101

>  <assay_description>  (716) 
Inhibition of AR transcriptional activity in human ARR2PB-eGFP expressing LNCaP cells after 3 days by fluorescence assay

>  <parent_molecule_chembl_id>  (716) 
CHEMBL4528089

>  <canonical_smiles>  (716) 
c1ccc2c(c1)CC(c1c[nH]c3ccccc13)N2

>  <standard_type>  (716) 
IC50

>  <standard_relation>  (716) 
=

>  <standard_value>  (716) 
310.0

>  <standard_units>  (716) 
nM

>  <target_pref_name>  (716) 
Androgen Receptor

>  <target_chembl_id>  (716) 
CHEMBL1871

>  <target_organism>  (716) 
Homo sapiens

>  <pchembl_median>  (716) 
6.68

$$$$
CHEMBL4746345
     RDKit          2D

 26 27  0  0  0  0  0  0  0  0999 V2000
    2.7990   -4.4462    0.0000 C   0  0  0  0  0  0  0  0  0  0  0  0
    1.5000   -5.1962    0.0000 C   0  0  0  0  0  0  0  0  0  0  0  0
    2.2500   -6.4952    0.0000 O   0  0  0  0  0  0  0  0  0  0  0  0
    0.2010   -5.9462    0.0000 C   0  0  0  0  0  0  0  0  0  0  0  0
    0.2010   -7.4462    0.0000 N   0  0  0  0  0  0  0  0  0  0  0  0
    1.4145   -8.3278    0.0000 C   0  0  0  0  0  0  0  0  0  0  0  0
    0.9510   -9.7544    0.0000 C   0  0  0  0  0  0  0  0  0  0  0  0
    1.8326  -10.9679    0.0000 Br  0  0  0  0  0  0  0  0  0  0  0  0
   -0.5490   -9.7544    0.0000 C   0  0  0  0  0  0  0  0  0  0  0  0
   -1.4307  -10.9679    0.0000 F   0  0  0  0  0  0  0  0  0  0  0  0
   -1.0126   -8.3278    0.0000 N   0  0  0  0  0  0  0  0  0  0  0  0
    0.7500   -3.8971    0.0000 C   0  0  0  0  0  0  0  0  0  0  0  0
   -0.7500   -3.8971    0.0000 O   0  0  0  0  0  0  0  0  0  0  0  0
    1.5000   -2.5981    0.0000 N   0  0  0  0  0  0  0  0  0  0  0  0
    0.7500   -1.2990    0.0000 C   0  0  0  0  0  0  0  0  0  0  0  0
    1.5000    0.0000    0.0000 C   0  0  0  0  0  0  0  0  0  0  0  0
    0.7500    1.2990    0.0000 C   0  0  0  0  0  0  0  0  0  0  0  0
   -0.7500    1.2990    0.0000 C   0  0  0  0  0  0  0  0  0  0  0  0
   -1.5000    2.5981    0.0000 C   0  0  0  0  0  0  0  0  0  0  0  0
   -2.2500    3.8971    0.0000 N   0  0  0  0  0  0  0  0  0  0  0  0
   -1.5000    0.0000    0.0000 C   0  0  0  0  0  0  0  0  0  0  0  0
   -3.0000    0.0000    0.0000 C   0  0  0  0  0  0  0  0  0  0  0  0
   -4.5000    0.0000    0.0000 F   0  0  0  0  0  0  0  0  0  0  0  0
   -3.0000   -1.5000    0.0000 F   0  0  0  0  0  0  0  0  0  0  0  0
   -3.0000    1.5000    0.0000 F   0  0  0  0  0  0  0  0  0  0  0  0
   -0.7500   -1.2990    0.0000 C   0  0  0  0  0  0  0  0  0  0  0  0
  2  1  1  6
  2  3  1  0
  2  4  1  0
  4  5  1  0
  5  6  1  0
  6  7  2  0
  7  8  1  0
  7  9  1  0
  9 10  1  0
  9 11  2  0
  2 12  1  0
 12 13  2  0
 12 14  1  0
 14 15  1  0
 15 16  2  0
 16 17  1  0
 17 18  2  0
 18 19  1  0
 19 20  3  0
 18 21  1  0
 21 22  1  0
 22 23  1  0
 22 24  1  0
 22 25  1  0
 21 26  2  0
 11  5  1  0
 26 15  1  0
M  END
>  <assay_chembl_id>  (717) 
CHEMBL4676559

>  <assay_description>  (717) 
Antagonist activity at recombinant human AR F876L mutant expressed in COS cells assessed as inhibition of R1881-induced transcriptional activity measured after 24 hrs by dual luciferase reporter gene assay

>  <parent_molecule_chembl_id>  (717) 
CHEMBL4746345

>  <canonical_smiles>  (717) 
C[C@](O)(Cn1cc(Br)c(F)n1)C(=O)Nc1ccc(C#N)c(C(F)(F)F)c1

>  <standard_type>  (717) 
IC50

>  <standard_relation>  (717) 
=

>  <standard_value>  (717) 
84.0

>  <standard_units>  (717) 
nM

>  <target_pref_name>  (717) 
Androgen Receptor

>  <target_chembl_id>  (717) 
CHEMBL1871

>  <target_organism>  (717) 
Homo sapiens

>  <pchembl_median>  (717) 
5.51

$$$$
CHEMBL4781335
     RDKit          2D

 25 26  0  0  0  0  0  0  0  0999 V2000
    2.7990   -4.4462    0.0000 C   0  0  0  0  0  0  0  0  0  0  0  0
    1.5000   -5.1962    0.0000 C   0  0  0  0  0  0  0  0  0  0  0  0
    2.2500   -6.4952    0.0000 O   0  0  0  0  0  0  0  0  0  0  0  0
    0.2010   -5.9462    0.0000 C   0  0  0  0  0  0  0  0  0  0  0  0
    0.2010   -7.4462    0.0000 N   0  0  0  0  0  0  0  0  0  0  0  0
    1.4145   -8.3278    0.0000 C   0  0  0  0  0  0  0  0  0  0  0  0
    0.9510   -9.7544    0.0000 C   0  0  0  0  0  0  0  0  0  0  0  0
    1.8326  -10.9679    0.0000 F   0  0  0  0  0  0  0  0  0  0  0  0
   -0.5490   -9.7544    0.0000 C   0  0  0  0  0  0  0  0  0  0  0  0
   -1.0126   -8.3278    0.0000 N   0  0  0  0  0  0  0  0  0  0  0  0
    0.7500   -3.8971    0.0000 C   0  0  0  0  0  0  0  0  0  0  0  0
   -0.7500   -3.8971    0.0000 O   0  0  0  0  0  0  0  0  0  0  0  0
    1.5000   -2.5981    0.0000 N   0  0  0  0  0  0  0  0  0  0  0  0
    0.7500   -1.2990    0.0000 C   0  0  0  0  0  0  0  0  0  0  0  0
    1.5000    0.0000    0.0000 C   0  0  0  0  0  0  0  0  0  0  0  0
    0.7500    1.2990    0.0000 N   0  0  0  0  0  0  0  0  0  0  0  0
   -0.7500    1.2990    0.0000 C   0  0  0  0  0  0  0  0  0  0  0  0
   -1.5000    2.5981    0.0000 C   0  0  0  0  0  0  0  0  0  0  0  0
   -2.2500    3.8971    0.0000 N   0  0  0  0  0  0  0  0  0  0  0  0
   -1.5000    0.0000    0.0000 C   0  0  0  0  0  0  0  0  0  0  0  0
   -3.0000    0.0000    0.0000 C   0  0  0  0  0  0  0  0  0  0  0  0
   -4.5000    0.0000    0.0000 F   0  0  0  0  0  0  0  0  0  0  0  0
   -3.0000    1.5000    0.0000 F   0  0  0  0  0  0  0  0  0  0  0  0
   -3.0000   -1.5000    0.0000 F   0  0  0  0  0  0  0  0  0  0  0  0
   -0.7500   -1.2990    0.0000 C   0  0  0  0  0  0  0  0  0  0  0  0
  2  1  1  6
  2  3  1  0
  2  4  1  0
  4  5  1  0
  5  6  1  0
  6  7  2  0
  7  8  1  0
  7  9  1  0
  9 10  2  0
  2 11  1  0
 11 12  2  0
 11 13  1  0
 13 14  1  0
 14 15  2  0
 15 16  1  0
 16 17  2  0
 17 18  1  0
 18 19  3  0
 17 20  1  0
 20 21  1  0
 21 22  1  0
 21 23  1  0
 21 24  1  0
 20 25  2  0
 10  5  1  0
 25 14  1  0
M  END
>  <assay_chembl_id>  (718) 
CHEMBL4676559

>  <assay_description>  (718) 
Antagonist activity at recombinant human AR F876L mutant expressed in COS cells assessed as inhibition of R1881-induced transcriptional activity measured after 24 hrs by dual luciferase reporter gene assay

>  <parent_molecule_chembl_id>  (718) 
CHEMBL4781335

>  <canonical_smiles>  (718) 
C[C@](O)(Cn1cc(F)cn1)C(=O)Nc1cnc(C#N)c(C(F)(F)F)c1

>  <standard_type>  (718) 
IC50

>  <standard_relation>  (718) 
=

>  <standard_value>  (718) 
63.0

>  <standard_units>  (718) 
nM

>  <target_pref_name>  (718) 
Androgen Receptor

>  <target_chembl_id>  (718) 
CHEMBL1871

>  <target_organism>  (718) 
Homo sapiens

>  <pchembl_median>  (718) 
4.69

$$$$
CHEMBL4776248
     RDKit          2D

 26 27  0  0  0  0  0  0  0  0999 V2000
    2.7990   -4.4462    0.0000 C   0  0  0  0  0  0  0  0  0  0  0  0
    1.5000   -5.1962    0.0000 C   0  0  0  0  0  0  0  0  0  0  0  0
    2.2500   -6.4952    0.0000 O   0  0  0  0  0  0  0  0  0  0  0  0
    0.2010   -5.9462    0.0000 C   0  0  0  0  0  0  0  0  0  0  0  0
    0.2010   -7.4462    0.0000 N   0  0  0  0  0  0  0  0  0  0  0  0
    1.4145   -8.3278    0.0000 C   0  0  0  0  0  0  0  0  0  0  0  0
    0.9510   -9.7544    0.0000 C   0  0  0  0  0  0  0  0  0  0  0  0
    1.8326  -10.9679    0.0000 C   0  0  0  0  0  0  0  0  0  0  0  0
    2.7143  -12.1815    0.0000 N   0  0  0  0  0  0  0  0  0  0  0  0
   -0.5490   -9.7544    0.0000 C   0  0  0  0  0  0  0  0  0  0  0  0
   -1.0126   -8.3278    0.0000 N   0  0  0  0  0  0  0  0  0  0  0  0
    0.7500   -3.8971    0.0000 C   0  0  0  0  0  0  0  0  0  0  0  0
   -0.7500   -3.8971    0.0000 O   0  0  0  0  0  0  0  0  0  0  0  0
    1.5000   -2.5981    0.0000 N   0  0  0  0  0  0  0  0  0  0  0  0
    0.7500   -1.2990    0.0000 C   0  0  0  0  0  0  0  0  0  0  0  0
    1.5000    0.0000    0.0000 C   0  0  0  0  0  0  0  0  0  0  0  0
    0.7500    1.2990    0.0000 C   0  0  0  0  0  0  0  0  0  0  0  0
   -0.7500    1.2990    0.0000 C   0  0  0  0  0  0  0  0  0  0  0  0
   -1.5000    2.5981    0.0000 C   0  0  0  0  0  0  0  0  0  0  0  0
   -2.2500    3.8971    0.0000 N   0  0  0  0  0  0  0  0  0  0  0  0
   -1.5000    0.0000    0.0000 C   0  0  0  0  0  0  0  0  0  0  0  0
   -3.0000    0.0000    0.0000 C   0  0  0  0  0  0  0  0  0  0  0  0
   -4.5000    0.0000    0.0000 F   0  0  0  0  0  0  0  0  0  0  0  0
   -3.0000   -1.5000    0.0000 F   0  0  0  0  0  0  0  0  0  0  0  0
   -3.0000    1.5000    0.0000 F   0  0  0  0  0  0  0  0  0  0  0  0
   -0.7500   -1.2990    0.0000 C   0  0  0  0  0  0  0  0  0  0  0  0
  2  1  1  6
  2  3  1  0
  2  4  1  0
  4  5  1  0
  5  6  1  0
  6  7  2  0
  7  8  1  0
  8  9  3  0
  7 10  1  0
 10 11  2  0
  2 12  1  0
 12 13  2  0
 12 14  1  0
 14 15  1  0
 15 16  2  0
 16 17  1  0
 17 18  2  0
 18 19  1  0
 19 20  3  0
 18 21  1  0
 21 22  1  0
 22 23  1  0
 22 24  1  0
 22 25  1  0
 21 26  2  0
 11  5  1  0
 26 15  1  0
M  END
>  <assay_chembl_id>  (719) 
CHEMBL4676559

>  <assay_description>  (719) 
Antagonist activity at recombinant human AR F876L mutant expressed in COS cells assessed as inhibition of R1881-induced transcriptional activity measured after 24 hrs by dual luciferase reporter gene assay

>  <parent_molecule_chembl_id>  (719) 
CHEMBL4776248

>  <canonical_smiles>  (719) 
C[C@](O)(Cn1cc(C#N)cn1)C(=O)Nc1ccc(C#N)c(C(F)(F)F)c1

>  <standard_type>  (719) 
IC50

>  <standard_relation>  (719) 
=

>  <standard_value>  (719) 
43.0

>  <standard_units>  (719) 
nM

>  <target_pref_name>  (719) 
Androgen Receptor

>  <target_chembl_id>  (719) 
CHEMBL1871

>  <target_organism>  (719) 
Homo sapiens

>  <pchembl_median>  (719) 
6.66

$$$$
CHEMBL4783581
     RDKit          2D

 25 26  0  0  0  0  0  0  0  0999 V2000
    2.7990   -4.4462    0.0000 C   0  0  0  0  0  0  0  0  0  0  0  0
    1.5000   -5.1962    0.0000 C   0  0  0  0  0  0  0  0  0  0  0  0
    2.2500   -6.4952    0.0000 O   0  0  0  0  0  0  0  0  0  0  0  0
    0.2010   -5.9462    0.0000 C   0  0  0  0  0  0  0  0  0  0  0  0
    0.2010   -7.4462    0.0000 N   0  0  0  0  0  0  0  0  0  0  0  0
    1.4145   -8.3278    0.0000 C   0  0  0  0  0  0  0  0  0  0  0  0
    0.9510   -9.7544    0.0000 C   0  0  0  0  0  0  0  0  0  0  0  0
    1.8326  -10.9679    0.0000 F   0  0  0  0  0  0  0  0  0  0  0  0
   -0.5490   -9.7544    0.0000 C   0  0  0  0  0  0  0  0  0  0  0  0
   -1.0126   -8.3278    0.0000 N   0  0  0  0  0  0  0  0  0  0  0  0
    0.7500   -3.8971    0.0000 C   0  0  0  0  0  0  0  0  0  0  0  0
   -0.7500   -3.8971    0.0000 O   0  0  0  0  0  0  0  0  0  0  0  0
    1.5000   -2.5981    0.0000 N   0  0  0  0  0  0  0  0  0  0  0  0
    0.7500   -1.2990    0.0000 C   0  0  0  0  0  0  0  0  0  0  0  0
    1.5000    0.0000    0.0000 C   0  0  0  0  0  0  0  0  0  0  0  0
    0.7500    1.2990    0.0000 C   0  0  0  0  0  0  0  0  0  0  0  0
   -0.7500    1.2990    0.0000 C   0  0  0  0  0  0  0  0  0  0  0  0
   -1.5000    2.5981    0.0000 C   0  0  0  0  0  0  0  0  0  0  0  0
   -2.2500    3.8971    0.0000 N   0  0  0  0  0  0  0  0  0  0  0  0
   -1.5000    0.0000    0.0000 C   0  0  0  0  0  0  0  0  0  0  0  0
   -3.0000    0.0000    0.0000 C   0  0  0  0  0  0  0  0  0  0  0  0
   -4.5000    0.0000    0.0000 F   0  0  0  0  0  0  0  0  0  0  0  0
   -3.0000   -1.5000    0.0000 F   0  0  0  0  0  0  0  0  0  0  0  0
   -3.0000    1.5000    0.0000 F   0  0  0  0  0  0  0  0  0  0  0  0
   -0.7500   -1.2990    0.0000 C   0  0  0  0  0  0  0  0  0  0  0  0
  2  1  1  6
  2  3  1  0
  2  4  1  0
  4  5  1  0
  5  6  1  0
  6  7  2  0
  7  8  1  0
  7  9  1  0
  9 10  2  0
  2 11  1  0
 11 12  2  0
 11 13  1  0
 13 14  1  0
 14 15  2  0
 15 16  1  0
 16 17  2  0
 17 18  1  0
 18 19  3  0
 17 20  1  0
 20 21  1  0
 21 22  1  0
 21 23  1  0
 21 24  1  0
 20 25  2  0
 10  5  1  0
 25 14  1  0
M  END
>  <assay_chembl_id>  (720) 
CHEMBL4676559

>  <assay_description>  (720) 
Antagonist activity at recombinant human AR F876L mutant expressed in COS cells assessed as inhibition of R1881-induced transcriptional activity measured after 24 hrs by dual luciferase reporter gene assay

>  <parent_molecule_chembl_id>  (720) 
CHEMBL4783581

>  <canonical_smiles>  (720) 
C[C@](O)(Cn1cc(F)cn1)C(=O)Nc1ccc(C#N)c(C(F)(F)F)c1

>  <standard_type>  (720) 
IC50

>  <standard_relation>  (720) 
=

>  <standard_value>  (720) 
219.0

>  <standard_units>  (720) 
nM

>  <target_pref_name>  (720) 
Androgen Receptor

>  <target_chembl_id>  (720) 
CHEMBL1871

>  <target_organism>  (720) 
Homo sapiens

>  <pchembl_median>  (720) 
5.69

$$$$
CHEMBL4782924
     RDKit          2D

 29 30  0  0  0  0  0  0  0  0999 V2000
    2.7990   -4.4462    0.0000 C   0  0  0  0  0  0  0  0  0  0  0  0
    1.5000   -5.1962    0.0000 C   0  0  0  0  0  0  0  0  0  0  0  0
    0.2010   -5.9462    0.0000 C   0  0  0  0  0  0  0  0  0  0  0  0
    0.2010   -7.4462    0.0000 N   0  0  0  0  0  0  0  0  0  0  0  0
    1.4145   -8.3278    0.0000 C   0  0  0  0  0  0  0  0  0  0  0  0
    0.9510   -9.7544    0.0000 C   0  0  0  0  0  0  0  0  0  0  0  0
    1.8326  -10.9679    0.0000 N   0  0  0  0  0  0  0  0  0  0  0  0
   -0.5490   -9.7544    0.0000 C   0  0  0  0  0  0  0  0  0  0  0  0
   -1.0126   -8.3278    0.0000 N   0  0  0  0  0  0  0  0  0  0  0  0
    2.2500   -6.4952    0.0000 O   0  0  0  0  0  0  0  0  0  0  0  0
    3.7500   -6.4952    0.0000 C   0  0  0  0  0  0  0  0  0  0  0  0
    4.5000   -5.1962    0.0000 O   0  0  0  0  0  0  0  0  0  0  0  0
    4.5000   -7.7942    0.0000 C   0  0  0  0  0  0  0  0  0  0  0  0
    6.0000   -7.7942    0.0000 Cl  0  0  0  0  0  0  0  0  0  0  0  0
    0.7500   -3.8971    0.0000 C   0  0  0  0  0  0  0  0  0  0  0  0
   -0.7500   -3.8971    0.0000 O   0  0  0  0  0  0  0  0  0  0  0  0
    1.5000   -2.5981    0.0000 N   0  0  0  0  0  0  0  0  0  0  0  0
    0.7500   -1.2990    0.0000 C   0  0  0  0  0  0  0  0  0  0  0  0
    1.5000    0.0000    0.0000 C   0  0  0  0  0  0  0  0  0  0  0  0
    0.7500    1.2990    0.0000 C   0  0  0  0  0  0  0  0  0  0  0  0
   -0.7500    1.2990    0.0000 C   0  0  0  0  0  0  0  0  0  0  0  0
   -1.5000    2.5981    0.0000 C   0  0  0  0  0  0  0  0  0  0  0  0
   -2.2500    3.8971    0.0000 N   0  0  0  0  0  0  0  0  0  0  0  0
   -1.5000    0.0000    0.0000 C   0  0  0  0  0  0  0  0  0  0  0  0
   -3.0000    0.0000    0.0000 C   0  0  0  0  0  0  0  0  0  0  0  0
   -4.5000    0.0000    0.0000 F   0  0  0  0  0  0  0  0  0  0  0  0
   -3.0000   -1.5000    0.0000 F   0  0  0  0  0  0  0  0  0  0  0  0
   -3.0000    1.5000    0.0000 F   0  0  0  0  0  0  0  0  0  0  0  0
   -0.7500   -1.2990    0.0000 C   0  0  0  0  0  0  0  0  0  0  0  0
  2  1  1  6
  2  3  1  0
  3  4  1  0
  4  5  1  0
  5  6  2  0
  6  7  1  0
  6  8  1  0
  8  9  2  0
  2 10  1  0
 10 11  1  0
 11 12  2  0
 11 13  1  0
 13 14  1  0
  2 15  1  0
 15 16  2  0
 15 17  1  0
 17 18  1  0
 18 19  2  0
 19 20  1  0
 20 21  2  0
 21 22  1  0
 22 23  3  0
 21 24  1  0
 24 25  1  0
 25 26  1  0
 25 27  1  0
 25 28  1  0
 24 29  2  0
  9  4  1  0
 29 18  1  0
M  END
>  <assay_chembl_id>  (721) 
CHEMBL4676574

>  <assay_description>  (721) 
Antagonist activity at recombinant human AR expressed in HEK293 cells assessed as inhibition of R1881-induced transcriptional activity measured after 24 hrs by dual luciferase reporter gene assay

>  <parent_molecule_chembl_id>  (721) 
CHEMBL4782924

>  <canonical_smiles>  (721) 
C[C@@](Cn1cc(N)cn1)(OC(=O)CCl)C(=O)Nc1ccc(C#N)c(C(F)(F)F)c1

>  <standard_type>  (721) 
IC50

>  <standard_relation>  (721) 
=

>  <standard_value>  (721) 
901.0

>  <standard_units>  (721) 
nM

>  <target_pref_name>  (721) 
Androgen Receptor

>  <target_chembl_id>  (721) 
CHEMBL1871

>  <target_organism>  (721) 
Homo sapiens

>  <pchembl_median>  (721) 
5.41

$$$$
CHEMBL4800572
     RDKit          2D

 27 29  0  0  0  0  0  0  0  0999 V2000
    4.7302   -3.7586    0.0000 C   0  0  0  0  0  0  0  0  0  0  0  0
    3.3037   -4.2221    0.0000 C   0  0  0  0  0  0  0  0  0  0  0  0
    3.9138   -5.5924    0.0000 C   0  0  0  0  0  0  0  0  0  0  0  0
    3.0321   -6.8059    0.0000 N   0  0  0  0  0  0  0  0  0  0  0  0
    3.4956   -8.2325    0.0000 C   0  0  0  0  0  0  0  0  0  0  0  0
    2.2821   -9.1142    0.0000 C   0  0  0  0  0  0  0  0  0  0  0  0
    2.2821  -10.6142    0.0000 F   0  0  0  0  0  0  0  0  0  0  0  0
    1.0686   -8.2325    0.0000 C   0  0  0  0  0  0  0  0  0  0  0  0
    1.5321   -6.8059    0.0000 N   0  0  0  0  0  0  0  0  0  0  0  0
    2.0046   -4.9721    0.0000 O   0  0  0  0  0  0  0  0  0  0  0  0
    0.8899   -3.9684    0.0000 C   0  0  0  0  0  0  0  0  0  0  0  0
   -0.5773   -4.2803    0.0000 O   0  0  0  0  0  0  0  0  0  0  0  0
    1.5000   -2.5981    0.0000 N   0  0  0  0  0  0  0  0  0  0  0  0
    0.7500   -1.2990    0.0000 C   0  0  0  0  0  0  0  0  0  0  0  0
    1.5000    0.0000    0.0000 C   0  0  0  0  0  0  0  0  0  0  0  0
    0.7500    1.2990    0.0000 C   0  0  0  0  0  0  0  0  0  0  0  0
   -0.7500    1.2990    0.0000 C   0  0  0  0  0  0  0  0  0  0  0  0
   -1.5000    2.5981    0.0000 C   0  0  0  0  0  0  0  0  0  0  0  0
   -2.2500    3.8971    0.0000 N   0  0  0  0  0  0  0  0  0  0  0  0
   -1.5000    0.0000    0.0000 C   0  0  0  0  0  0  0  0  0  0  0  0
   -3.0000    0.0000    0.0000 C   0  0  0  0  0  0  0  0  0  0  0  0
   -4.5000    0.0000    0.0000 F   0  0  0  0  0  0  0  0  0  0  0  0
   -3.0000   -1.5000    0.0000 F   0  0  0  0  0  0  0  0  0  0  0  0
   -3.0000    1.5000    0.0000 F   0  0  0  0  0  0  0  0  0  0  0  0
   -0.7500   -1.2990    0.0000 C   0  0  0  0  0  0  0  0  0  0  0  0
    2.9918   -2.7549    0.0000 C   0  0  0  0  0  0  0  0  0  0  0  0
    3.9955   -1.6402    0.0000 O   0  0  0  0  0  0  0  0  0  0  0  0
  2  1  1  1
  2  3  1  0
  3  4  1  0
  4  5  1  0
  5  6  2  0
  6  7  1  0
  6  8  1  0
  8  9  2  0
  2 10  1  0
 10 11  1  0
 11 12  2  0
 11 13  1  0
 13 14  1  0
 14 15  2  0
 15 16  1  0
 16 17  2  0
 17 18  1  0
 18 19  3  0
 17 20  1  0
 20 21  1  0
 21 22  1  0
 21 23  1  0
 21 24  1  0
 20 25  2  0
 13 26  1  0
 26 27  2  0
 26  2  1  0
  9  4  1  0
 25 14  1  0
M  END
>  <assay_chembl_id>  (722) 
CHEMBL4676574

>  <assay_description>  (722) 
Antagonist activity at recombinant human AR expressed in HEK293 cells assessed as inhibition of R1881-induced transcriptional activity measured after 24 hrs by dual luciferase reporter gene assay

>  <parent_molecule_chembl_id>  (722) 
CHEMBL4800572

>  <canonical_smiles>  (722) 
C[C@@]1(Cn2cc(F)cn2)OC(=O)N(c2ccc(C#N)c(C(F)(F)F)c2)C1=O

>  <standard_type>  (722) 
IC50

>  <standard_relation>  (722) 
=

>  <standard_value>  (722) 
1131.0

>  <standard_units>  (722) 
nM

>  <target_pref_name>  (722) 
Androgen Receptor

>  <target_chembl_id>  (722) 
CHEMBL1871

>  <target_organism>  (722) 
Homo sapiens

>  <pchembl_median>  (722) 
6.85

$$$$
CHEMBL4747056
     RDKit          2D

 23 24  0  0  0  0  0  0  0  0999 V2000
    4.5000    0.0000    0.0000 N   0  0  0  0  0  0  0  0  0  0  0  0
    3.0000    0.0000    0.0000 C   0  0  0  0  0  0  0  0  0  0  0  0
    1.5000    0.0000    0.0000 C   0  0  0  0  0  0  0  0  0  0  0  0
    0.7500   -1.2990    0.0000 C   0  0  0  0  0  0  0  0  0  0  0  0
   -0.7500   -1.2990    0.0000 C   0  0  0  0  0  0  0  0  0  0  0  0
   -1.5000    0.0000    0.0000 C   0  0  0  0  0  0  0  0  0  0  0  0
   -3.0000    0.0000    0.0000 N   0  0  0  0  0  0  0  0  0  0  0  0
   -3.7500    1.2990    0.0000 C   0  0  0  0  0  0  0  0  0  0  0  0
   -3.0000    2.5981    0.0000 O   0  0  0  0  0  0  0  0  0  0  0  0
   -5.2500    1.2990    0.0000 C   0  0  0  0  0  0  0  0  0  0  0  0
   -6.0000    2.5981    0.0000 C   0  0  0  0  0  0  0  0  0  0  0  0
   -7.5000    2.5981    0.0000 N   0  0  0  0  0  0  0  0  0  0  0  0
   -8.3817    1.3846    0.0000 C   0  0  0  0  0  0  0  0  0  0  0  0
   -9.8083    1.8481    0.0000 C   0  0  0  0  0  0  0  0  0  0  0  0
  -11.0218    0.9664    0.0000 F   0  0  0  0  0  0  0  0  0  0  0  0
   -9.8083    3.3481    0.0000 C   0  0  0  0  0  0  0  0  0  0  0  0
   -8.3817    3.8116    0.0000 N   0  0  0  0  0  0  0  0  0  0  0  0
   -0.7500    1.2990    0.0000 C   0  0  0  0  0  0  0  0  0  0  0  0
    0.7500    1.2990    0.0000 C   0  0  0  0  0  0  0  0  0  0  0  0
    1.5000    2.5981    0.0000 C   0  0  0  0  0  0  0  0  0  0  0  0
    2.2500    3.8971    0.0000 F   0  0  0  0  0  0  0  0  0  0  0  0
    0.2010    3.3481    0.0000 F   0  0  0  0  0  0  0  0  0  0  0  0
    2.7990    1.8481    0.0000 F   0  0  0  0  0  0  0  0  0  0  0  0
  1  2  3  0
  2  3  1  0
  3  4  2  0
  4  5  1  0
  5  6  2  0
  6  7  1  0
  7  8  1  0
  8  9  2  0
  8 10  1  0
 10 11  1  0
 11 12  1  0
 12 13  1  0
 13 14  2  0
 14 15  1  0
 14 16  1  0
 16 17  2  0
  6 18  1  0
 18 19  2  0
 19 20  1  0
 20 21  1  0
 20 22  1  0
 20 23  1  0
 19  3  1  0
 17 12  1  0
M  END
>  <assay_chembl_id>  (723) 
CHEMBL4676574

>  <assay_description>  (723) 
Antagonist activity at recombinant human AR expressed in HEK293 cells assessed as inhibition of R1881-induced transcriptional activity measured after 24 hrs by dual luciferase reporter gene assay

>  <parent_molecule_chembl_id>  (723) 
CHEMBL4747056

>  <canonical_smiles>  (723) 
N#Cc1ccc(NC(=O)CCn2cc(F)cn2)cc1C(F)(F)F

>  <standard_type>  (723) 
IC50

>  <standard_relation>  (723) 
=

>  <standard_value>  (723) 
2124.0

>  <standard_units>  (723) 
nM

>  <target_pref_name>  (723) 
Androgen Receptor

>  <target_chembl_id>  (723) 
CHEMBL1871

>  <target_organism>  (723) 
Homo sapiens

>  <pchembl_median>  (723) 
5.43

$$$$
CHEMBL4746960
     RDKit          2D

 24 25  0  0  0  0  0  0  0  0999 V2000
    0.7500   -6.4952    0.0000 C   0  0  0  0  0  0  0  0  0  0  0  0
    1.5000   -5.1962    0.0000 C   0  0  0  0  0  0  0  0  0  0  0  0
    3.0000   -5.1962    0.0000 C   0  0  0  0  0  0  0  0  0  0  0  0
    3.7500   -6.4952    0.0000 N   0  0  0  0  0  0  0  0  0  0  0  0
    5.2418   -6.6520    0.0000 C   0  0  0  0  0  0  0  0  0  0  0  0
    5.5537   -8.1192    0.0000 C   0  0  0  0  0  0  0  0  0  0  0  0
    6.9240   -8.7293    0.0000 F   0  0  0  0  0  0  0  0  0  0  0  0
    4.2546   -8.8692    0.0000 C   0  0  0  0  0  0  0  0  0  0  0  0
    3.1399   -7.8655    0.0000 N   0  0  0  0  0  0  0  0  0  0  0  0
    0.7500   -3.8971    0.0000 C   0  0  0  0  0  0  0  0  0  0  0  0
   -0.7500   -3.8971    0.0000 O   0  0  0  0  0  0  0  0  0  0  0  0
    1.5000   -2.5981    0.0000 N   0  0  0  0  0  0  0  0  0  0  0  0
    0.7500   -1.2990    0.0000 C   0  0  0  0  0  0  0  0  0  0  0  0
    1.5000    0.0000    0.0000 C   0  0  0  0  0  0  0  0  0  0  0  0
    0.7500    1.2990    0.0000 C   0  0  0  0  0  0  0  0  0  0  0  0
   -0.7500    1.2990    0.0000 C   0  0  0  0  0  0  0  0  0  0  0  0
   -1.5000    2.5981    0.0000 C   0  0  0  0  0  0  0  0  0  0  0  0
   -2.2500    3.8971    0.0000 N   0  0  0  0  0  0  0  0  0  0  0  0
   -1.5000    0.0000    0.0000 C   0  0  0  0  0  0  0  0  0  0  0  0
   -3.0000    0.0000    0.0000 C   0  0  0  0  0  0  0  0  0  0  0  0
   -4.5000    0.0000    0.0000 F   0  0  0  0  0  0  0  0  0  0  0  0
   -3.0000   -1.5000    0.0000 F   0  0  0  0  0  0  0  0  0  0  0  0
   -3.0000    1.5000    0.0000 F   0  0  0  0  0  0  0  0  0  0  0  0
   -0.7500   -1.2990    0.0000 C   0  0  0  0  0  0  0  0  0  0  0  0
  1  2  1  0
  2  3  1  0
  3  4  1  0
  4  5  1  0
  5  6  2  0
  6  7  1  0
  6  8  1  0
  8  9  2  0
  2 10  1  0
 10 11  2  0
 10 12  1  0
 12 13  1  0
 13 14  2  0
 14 15  1  0
 15 16  2  0
 16 17  1  0
 17 18  3  0
 16 19  1  0
 19 20  1  0
 20 21  1  0
 20 22  1  0
 20 23  1  0
 19 24  2  0
  9  4  1  0
 24 13  1  0
M  END
>  <assay_chembl_id>  (724) 
CHEMBL4676574

>  <assay_description>  (724) 
Antagonist activity at recombinant human AR expressed in HEK293 cells assessed as inhibition of R1881-induced transcriptional activity measured after 24 hrs by dual luciferase reporter gene assay

>  <parent_molecule_chembl_id>  (724) 
CHEMBL4746960

>  <canonical_smiles>  (724) 
CC(Cn1cc(F)cn1)C(=O)Nc1ccc(C#N)c(C(F)(F)F)c1

>  <standard_type>  (724) 
IC50

>  <standard_relation>  (724) 
=

>  <standard_value>  (724) 
462.0

>  <standard_units>  (724) 
nM

>  <target_pref_name>  (724) 
Androgen Receptor

>  <target_chembl_id>  (724) 
CHEMBL1871

>  <target_organism>  (724) 
Homo sapiens

>  <pchembl_median>  (724) 
5.7

$$$$
CHEMBL4792938
     RDKit          2D

 25 26  0  0  0  0  0  0  0  0999 V2000
    2.7990   -4.4462    0.0000 C   0  0  0  0  0  0  0  0  0  0  0  0
    1.5000   -5.1962    0.0000 C   0  0  0  0  0  0  0  0  0  0  0  0
    2.2500   -6.4952    0.0000 O   0  0  0  0  0  0  0  0  0  0  0  0
    0.2010   -5.9462    0.0000 C   0  0  0  0  0  0  0  0  0  0  0  0
    0.2010   -7.4462    0.0000 N   0  0  0  0  0  0  0  0  0  0  0  0
    1.4145   -8.3278    0.0000 C   0  0  0  0  0  0  0  0  0  0  0  0
    0.9510   -9.7544    0.0000 C   0  0  0  0  0  0  0  0  0  0  0  0
    1.8326  -10.9679    0.0000 F   0  0  0  0  0  0  0  0  0  0  0  0
   -0.5490   -9.7544    0.0000 C   0  0  0  0  0  0  0  0  0  0  0  0
   -1.0126   -8.3278    0.0000 N   0  0  0  0  0  0  0  0  0  0  0  0
    0.7500   -3.8971    0.0000 C   0  0  0  0  0  0  0  0  0  0  0  0
   -0.7500   -3.8971    0.0000 O   0  0  0  0  0  0  0  0  0  0  0  0
    1.5000   -2.5981    0.0000 N   0  0  0  0  0  0  0  0  0  0  0  0
    0.7500   -1.2990    0.0000 C   0  0  0  0  0  0  0  0  0  0  0  0
    1.5000    0.0000    0.0000 C   0  0  0  0  0  0  0  0  0  0  0  0
    0.7500    1.2990    0.0000 C   0  0  0  0  0  0  0  0  0  0  0  0
   -0.7500    1.2990    0.0000 C   0  0  0  0  0  0  0  0  0  0  0  0
   -1.5000    2.5981    0.0000 C   0  0  0  0  0  0  0  0  0  0  0  0
   -2.2500    3.8971    0.0000 N   0  0  0  0  0  0  0  0  0  0  0  0
   -1.5000    0.0000    0.0000 C   0  0  0  0  0  0  0  0  0  0  0  0
   -3.0000    0.0000    0.0000 C   0  0  0  0  0  0  0  0  0  0  0  0
   -4.5000    0.0000    0.0000 F   0  0  0  0  0  0  0  0  0  0  0  0
   -3.0000   -1.5000    0.0000 F   0  0  0  0  0  0  0  0  0  0  0  0
   -3.0000    1.5000    0.0000 F   0  0  0  0  0  0  0  0  0  0  0  0
   -0.7500   -1.2990    0.0000 C   0  0  0  0  0  0  0  0  0  0  0  0
  2  1  1  1
  2  3  1  0
  2  4  1  0
  4  5  1  0
  5  6  1  0
  6  7  2  0
  7  8  1  0
  7  9  1  0
  9 10  2  0
  2 11  1  0
 11 12  2  0
 11 13  1  0
 13 14  1  0
 14 15  2  0
 15 16  1  0
 16 17  2  0
 17 18  1  0
 18 19  3  0
 17 20  1  0
 20 21  1  0
 21 22  1  0
 21 23  1  0
 21 24  1  0
 20 25  2  0
 10  5  1  0
 25 14  1  0
M  END
>  <assay_chembl_id>  (725) 
CHEMBL4676574

>  <assay_description>  (725) 
Antagonist activity at recombinant human AR expressed in HEK293 cells assessed as inhibition of R1881-induced transcriptional activity measured after 24 hrs by dual luciferase reporter gene assay

>  <parent_molecule_chembl_id>  (725) 
CHEMBL4792938

>  <canonical_smiles>  (725) 
C[C@@](O)(Cn1cc(F)cn1)C(=O)Nc1ccc(C#N)c(C(F)(F)F)c1

>  <standard_type>  (725) 
IC50

>  <standard_relation>  (725) 
=

>  <standard_value>  (725) 
192.0

>  <standard_units>  (725) 
nM

>  <target_pref_name>  (725) 
Androgen Receptor

>  <target_chembl_id>  (725) 
CHEMBL1871

>  <target_organism>  (725) 
Homo sapiens

>  <pchembl_median>  (725) 
5.26

$$$$
CHEMBL4758119
     RDKit          2D

 32 34  0  0  0  0  0  0  0  0999 V2000
   -0.8928   -7.6841    0.0000 C   0  0  0  0  0  0  0  0  0  0  0  0
    0.4775   -7.0740    0.0000 C   0  0  0  0  0  0  0  0  0  0  0  0
    1.0876   -8.4443    0.0000 O   0  0  0  0  0  0  0  0  0  0  0  0
    1.8478   -6.4639    0.0000 C   0  0  0  0  0  0  0  0  0  0  0  0
    3.0613   -7.3456    0.0000 N   0  0  0  0  0  0  0  0  0  0  0  0
    3.0613   -8.8456    0.0000 C   0  0  0  0  0  0  0  0  0  0  0  0
    4.4879   -9.3091    0.0000 C   0  0  0  0  0  0  0  0  0  0  0  0
    4.9515  -10.7357    0.0000 C   0  0  0  0  0  0  0  0  0  0  0  0
    6.4187  -11.0475    0.0000 C   0  0  0  0  0  0  0  0  0  0  0  0
    6.8822  -12.4741    0.0000 C   0  0  0  0  0  0  0  0  0  0  0  0
    5.8785  -13.5888    0.0000 C   0  0  0  0  0  0  0  0  0  0  0  0
    4.4113  -13.2770    0.0000 C   0  0  0  0  0  0  0  0  0  0  0  0
    3.9478  -11.8504    0.0000 C   0  0  0  0  0  0  0  0  0  0  0  0
    5.3696   -8.0956    0.0000 C   0  0  0  0  0  0  0  0  0  0  0  0
    6.8696   -8.0956    0.0000 C   0  0  0  0  0  0  0  0  0  0  0  0
    8.3696   -8.0956    0.0000 N   0  0  0  0  0  0  0  0  0  0  0  0
    4.4879   -6.8820    0.0000 N   0  0  0  0  0  0  0  0  0  0  0  0
   -0.1326   -5.7037    0.0000 C   0  0  0  0  0  0  0  0  0  0  0  0
    0.7491   -4.4901    0.0000 O   0  0  0  0  0  0  0  0  0  0  0  0
   -1.6244   -5.5469    0.0000 N   0  0  0  0  0  0  0  0  0  0  0  0
   -2.2345   -4.1765    0.0000 C   0  0  0  0  0  0  0  0  0  0  0  0
   -1.3528   -2.9630    0.0000 C   0  0  0  0  0  0  0  0  0  0  0  0
   -1.9629   -1.5927    0.0000 N   0  0  0  0  0  0  0  0  0  0  0  0
   -3.4547   -1.4359    0.0000 C   0  0  0  0  0  0  0  0  0  0  0  0
   -4.0648   -0.0656    0.0000 C   0  0  0  0  0  0  0  0  0  0  0  0
   -4.6749    1.3047    0.0000 N   0  0  0  0  0  0  0  0  0  0  0  0
   -4.3364   -2.6494    0.0000 C   0  0  0  0  0  0  0  0  0  0  0  0
   -5.8282   -2.4926    0.0000 C   0  0  0  0  0  0  0  0  0  0  0  0
   -7.3199   -2.3359    0.0000 F   0  0  0  0  0  0  0  0  0  0  0  0
   -5.9850   -3.9844    0.0000 F   0  0  0  0  0  0  0  0  0  0  0  0
   -5.6714   -1.0009    0.0000 F   0  0  0  0  0  0  0  0  0  0  0  0
   -3.7263   -4.0198    0.0000 C   0  0  0  0  0  0  0  0  0  0  0  0
  2  1  1  1
  2  3  1  0
  2  4  1  0
  4  5  1  0
  5  6  1  0
  6  7  2  0
  7  8  1  0
  8  9  2  0
  9 10  1  0
 10 11  2  0
 11 12  1  0
 12 13  2  0
  7 14  1  0
 14 15  1  0
 15 16  3  0
 14 17  2  0
  2 18  1  0
 18 19  2  0
 18 20  1  0
 20 21  1  0
 21 22  2  0
 22 23  1  0
 23 24  2  0
 24 25  1  0
 25 26  3  0
 24 27  1  0
 27 28  1  0
 28 29  1  0
 28 30  1  0
 28 31  1  0
 27 32  2  0
 17  5  1  0
 32 21  1  0
 13  8  1  0
M  END
>  <assay_chembl_id>  (726) 
CHEMBL4676574

>  <assay_description>  (726) 
Antagonist activity at recombinant human AR expressed in HEK293 cells assessed as inhibition of R1881-induced transcriptional activity measured after 24 hrs by dual luciferase reporter gene assay

>  <parent_molecule_chembl_id>  (726) 
CHEMBL4758119

>  <canonical_smiles>  (726) 
C[C@](O)(Cn1cc(-c2ccccc2)c(C#N)n1)C(=O)Nc1cnc(C#N)c(C(F)(F)F)c1

>  <standard_type>  (726) 
IC50

>  <standard_relation>  (726) 
=

>  <standard_value>  (726) 
579.0

>  <standard_units>  (726) 
nM

>  <target_pref_name>  (726) 
Androgen Receptor

>  <target_chembl_id>  (726) 
CHEMBL1871

>  <target_organism>  (726) 
Homo sapiens

>  <pchembl_median>  (726) 
5.95

$$$$
CHEMBL4784244
     RDKit          2D

 27 28  0  0  0  0  0  0  0  0999 V2000
    2.7990   -4.4462    0.0000 C   0  0  0  0  0  0  0  0  0  0  0  0
    1.5000   -5.1962    0.0000 C   0  0  0  0  0  0  0  0  0  0  0  0
    2.2500   -6.4952    0.0000 O   0  0  0  0  0  0  0  0  0  0  0  0
    0.2010   -5.9462    0.0000 C   0  0  0  0  0  0  0  0  0  0  0  0
    0.2010   -7.4462    0.0000 N   0  0  0  0  0  0  0  0  0  0  0  0
    1.4145   -8.3278    0.0000 C   0  0  0  0  0  0  0  0  0  0  0  0
    0.9510   -9.7544    0.0000 C   0  0  0  0  0  0  0  0  0  0  0  0
    1.8326  -10.9679    0.0000 C   0  0  0  0  0  0  0  0  0  0  0  0
    2.7143  -12.1815    0.0000 N   0  0  0  0  0  0  0  0  0  0  0  0
   -0.5490   -9.7544    0.0000 C   0  0  0  0  0  0  0  0  0  0  0  0
   -1.4307  -10.9679    0.0000 Br  0  0  0  0  0  0  0  0  0  0  0  0
   -1.0126   -8.3278    0.0000 N   0  0  0  0  0  0  0  0  0  0  0  0
    0.7500   -3.8971    0.0000 C   0  0  0  0  0  0  0  0  0  0  0  0
   -0.7500   -3.8971    0.0000 O   0  0  0  0  0  0  0  0  0  0  0  0
    1.5000   -2.5981    0.0000 N   0  0  0  0  0  0  0  0  0  0  0  0
    0.7500   -1.2990    0.0000 C   0  0  0  0  0  0  0  0  0  0  0  0
    1.5000    0.0000    0.0000 C   0  0  0  0  0  0  0  0  0  0  0  0
    0.7500    1.2990    0.0000 N   0  0  0  0  0  0  0  0  0  0  0  0
   -0.7500    1.2990    0.0000 C   0  0  0  0  0  0  0  0  0  0  0  0
   -1.5000    2.5981    0.0000 C   0  0  0  0  0  0  0  0  0  0  0  0
   -2.2500    3.8971    0.0000 N   0  0  0  0  0  0  0  0  0  0  0  0
   -1.5000    0.0000    0.0000 C   0  0  0  0  0  0  0  0  0  0  0  0
   -3.0000    0.0000    0.0000 C   0  0  0  0  0  0  0  0  0  0  0  0
   -4.5000    0.0000    0.0000 F   0  0  0  0  0  0  0  0  0  0  0  0
   -3.0000    1.5000    0.0000 F   0  0  0  0  0  0  0  0  0  0  0  0
   -3.0000   -1.5000    0.0000 F   0  0  0  0  0  0  0  0  0  0  0  0
   -0.7500   -1.2990    0.0000 C   0  0  0  0  0  0  0  0  0  0  0  0
  2  1  1  6
  2  3  1  0
  2  4  1  0
  4  5  1  0
  5  6  1  0
  6  7  2  0
  7  8  1  0
  8  9  3  0
  7 10  1  0
 10 11  1  0
 10 12  2  0
  2 13  1  0
 13 14  2  0
 13 15  1  0
 15 16  1  0
 16 17  2  0
 17 18  1  0
 18 19  2  0
 19 20  1  0
 20 21  3  0
 19 22  1  0
 22 23  1  0
 23 24  1  0
 23 25  1  0
 23 26  1  0
 22 27  2  0
 12  5  1  0
 27 16  1  0
M  END
>  <assay_chembl_id>  (727) 
CHEMBL4676574

>  <assay_description>  (727) 
Antagonist activity at recombinant human AR expressed in HEK293 cells assessed as inhibition of R1881-induced transcriptional activity measured after 24 hrs by dual luciferase reporter gene assay

>  <parent_molecule_chembl_id>  (727) 
CHEMBL4784244

>  <canonical_smiles>  (727) 
C[C@](O)(Cn1cc(C#N)c(Br)n1)C(=O)Nc1cnc(C#N)c(C(F)(F)F)c1

>  <standard_type>  (727) 
IC50

>  <standard_relation>  (727) 
=

>  <standard_value>  (727) 
5481.0

>  <standard_units>  (727) 
nM

>  <target_pref_name>  (727) 
Androgen Receptor

>  <target_chembl_id>  (727) 
CHEMBL1871

>  <target_organism>  (727) 
Homo sapiens

>  <pchembl_median>  (727) 
5.71

$$$$
CHEMBL4794467
     RDKit          2D

 26 27  0  0  0  0  0  0  0  0999 V2000
    2.7990   -4.4462    0.0000 C   0  0  0  0  0  0  0  0  0  0  0  0
    1.5000   -5.1962    0.0000 C   0  0  0  0  0  0  0  0  0  0  0  0
    2.2500   -6.4952    0.0000 O   0  0  0  0  0  0  0  0  0  0  0  0
    0.2010   -5.9462    0.0000 C   0  0  0  0  0  0  0  0  0  0  0  0
    0.2010   -7.4462    0.0000 N   0  0  0  0  0  0  0  0  0  0  0  0
    1.4145   -8.3278    0.0000 C   0  0  0  0  0  0  0  0  0  0  0  0
    0.9510   -9.7544    0.0000 C   0  0  0  0  0  0  0  0  0  0  0  0
    1.8326  -10.9679    0.0000 Br  0  0  0  0  0  0  0  0  0  0  0  0
   -0.5490   -9.7544    0.0000 C   0  0  0  0  0  0  0  0  0  0  0  0
   -1.4307  -10.9679    0.0000 F   0  0  0  0  0  0  0  0  0  0  0  0
   -1.0126   -8.3278    0.0000 N   0  0  0  0  0  0  0  0  0  0  0  0
    0.7500   -3.8971    0.0000 C   0  0  0  0  0  0  0  0  0  0  0  0
   -0.7500   -3.8971    0.0000 O   0  0  0  0  0  0  0  0  0  0  0  0
    1.5000   -2.5981    0.0000 N   0  0  0  0  0  0  0  0  0  0  0  0
    0.7500   -1.2990    0.0000 C   0  0  0  0  0  0  0  0  0  0  0  0
    1.5000    0.0000    0.0000 C   0  0  0  0  0  0  0  0  0  0  0  0
    0.7500    1.2990    0.0000 N   0  0  0  0  0  0  0  0  0  0  0  0
   -0.7500    1.2990    0.0000 C   0  0  0  0  0  0  0  0  0  0  0  0
   -1.5000    2.5981    0.0000 C   0  0  0  0  0  0  0  0  0  0  0  0
   -2.2500    3.8971    0.0000 N   0  0  0  0  0  0  0  0  0  0  0  0
   -1.5000    0.0000    0.0000 C   0  0  0  0  0  0  0  0  0  0  0  0
   -3.0000    0.0000    0.0000 C   0  0  0  0  0  0  0  0  0  0  0  0
   -4.5000    0.0000    0.0000 F   0  0  0  0  0  0  0  0  0  0  0  0
   -3.0000    1.5000    0.0000 F   0  0  0  0  0  0  0  0  0  0  0  0
   -3.0000   -1.5000    0.0000 F   0  0  0  0  0  0  0  0  0  0  0  0
   -0.7500   -1.2990    0.0000 C   0  0  0  0  0  0  0  0  0  0  0  0
  2  1  1  6
  2  3  1  0
  2  4  1  0
  4  5  1  0
  5  6  1  0
  6  7  2  0
  7  8  1  0
  7  9  1  0
  9 10  1  0
  9 11  2  0
  2 12  1  0
 12 13  2  0
 12 14  1  0
 14 15  1  0
 15 16  2  0
 16 17  1  0
 17 18  2  0
 18 19  1  0
 19 20  3  0
 18 21  1  0
 21 22  1  0
 22 23  1  0
 22 24  1  0
 22 25  1  0
 21 26  2  0
 11  5  1  0
 26 15  1  0
M  END
>  <assay_chembl_id>  (728) 
CHEMBL4676574

>  <assay_description>  (728) 
Antagonist activity at recombinant human AR expressed in HEK293 cells assessed as inhibition of R1881-induced transcriptional activity measured after 24 hrs by dual luciferase reporter gene assay

>  <parent_molecule_chembl_id>  (728) 
CHEMBL4794467

>  <canonical_smiles>  (728) 
C[C@](O)(Cn1cc(Br)c(F)n1)C(=O)Nc1cnc(C#N)c(C(F)(F)F)c1

>  <standard_type>  (728) 
IC50

>  <standard_relation>  (728) 
=

>  <standard_value>  (728) 
35.0

>  <standard_units>  (728) 
nM

>  <target_pref_name>  (728) 
Androgen Receptor

>  <target_chembl_id>  (728) 
CHEMBL1871

>  <target_organism>  (728) 
Homo sapiens

>  <pchembl_median>  (728) 
6.4

$$$$
CHEMBL4757702
     RDKit          2D

 26 27  0  0  0  0  0  0  0  0999 V2000
    2.7990   -4.4462    0.0000 C   0  0  0  0  0  0  0  0  0  0  0  0
    1.5000   -5.1962    0.0000 C   0  0  0  0  0  0  0  0  0  0  0  0
    2.2500   -6.4952    0.0000 O   0  0  0  0  0  0  0  0  0  0  0  0
    0.2010   -5.9462    0.0000 C   0  0  0  0  0  0  0  0  0  0  0  0
    0.2010   -7.4462    0.0000 N   0  0  0  0  0  0  0  0  0  0  0  0
    1.4145   -8.3278    0.0000 C   0  0  0  0  0  0  0  0  0  0  0  0
    0.9510   -9.7544    0.0000 C   0  0  0  0  0  0  0  0  0  0  0  0
    1.8326  -10.9679    0.0000 Cl  0  0  0  0  0  0  0  0  0  0  0  0
   -0.5490   -9.7544    0.0000 C   0  0  0  0  0  0  0  0  0  0  0  0
   -1.4307  -10.9679    0.0000 Br  0  0  0  0  0  0  0  0  0  0  0  0
   -1.0126   -8.3278    0.0000 N   0  0  0  0  0  0  0  0  0  0  0  0
    0.7500   -3.8971    0.0000 C   0  0  0  0  0  0  0  0  0  0  0  0
   -0.7500   -3.8971    0.0000 O   0  0  0  0  0  0  0  0  0  0  0  0
    1.5000   -2.5981    0.0000 N   0  0  0  0  0  0  0  0  0  0  0  0
    0.7500   -1.2990    0.0000 C   0  0  0  0  0  0  0  0  0  0  0  0
    1.5000    0.0000    0.0000 C   0  0  0  0  0  0  0  0  0  0  0  0
    0.7500    1.2990    0.0000 C   0  0  0  0  0  0  0  0  0  0  0  0
   -0.7500    1.2990    0.0000 C   0  0  0  0  0  0  0  0  0  0  0  0
   -1.5000    2.5981    0.0000 C   0  0  0  0  0  0  0  0  0  0  0  0
   -2.2500    3.8971    0.0000 N   0  0  0  0  0  0  0  0  0  0  0  0
   -1.5000    0.0000    0.0000 C   0  0  0  0  0  0  0  0  0  0  0  0
   -3.0000    0.0000    0.0000 C   0  0  0  0  0  0  0  0  0  0  0  0
   -4.5000    0.0000    0.0000 F   0  0  0  0  0  0  0  0  0  0  0  0
   -3.0000   -1.5000    0.0000 F   0  0  0  0  0  0  0  0  0  0  0  0
   -3.0000    1.5000    0.0000 F   0  0  0  0  0  0  0  0  0  0  0  0
   -0.7500   -1.2990    0.0000 C   0  0  0  0  0  0  0  0  0  0  0  0
  2  1  1  6
  2  3  1  0
  2  4  1  0
  4  5  1  0
  5  6  1  0
  6  7  2  0
  7  8  1  0
  7  9  1  0
  9 10  1  0
  9 11  2  0
  2 12  1  0
 12 13  2  0
 12 14  1  0
 14 15  1  0
 15 16  2  0
 16 17  1  0
 17 18  2  0
 18 19  1  0
 19 20  3  0
 18 21  1  0
 21 22  1  0
 22 23  1  0
 22 24  1  0
 22 25  1  0
 21 26  2  0
 11  5  1  0
 26 15  1  0
M  END
>  <assay_chembl_id>  (729) 
CHEMBL4676574

>  <assay_description>  (729) 
Antagonist activity at recombinant human AR expressed in HEK293 cells assessed as inhibition of R1881-induced transcriptional activity measured after 24 hrs by dual luciferase reporter gene assay

>  <parent_molecule_chembl_id>  (729) 
CHEMBL4757702

>  <canonical_smiles>  (729) 
C[C@](O)(Cn1cc(Cl)c(Br)n1)C(=O)Nc1ccc(C#N)c(C(F)(F)F)c1

>  <standard_type>  (729) 
IC50

>  <standard_relation>  (729) 
=

>  <standard_value>  (729) 
138.0

>  <standard_units>  (729) 
nM

>  <target_pref_name>  (729) 
Androgen Receptor

>  <target_chembl_id>  (729) 
CHEMBL1871

>  <target_organism>  (729) 
Homo sapiens

>  <pchembl_median>  (729) 
4.58

$$$$
CHEMBL4752477
     RDKit          2D

 26 27  0  0  0  0  0  0  0  0999 V2000
    1.8326  -10.9679    0.0000 C   0  0  0  0  0  0  0  0  0  0  0  0
    0.9510   -9.7544    0.0000 C   0  0  0  0  0  0  0  0  0  0  0  0
    1.4145   -8.3278    0.0000 C   0  0  0  0  0  0  0  0  0  0  0  0
    0.2010   -7.4462    0.0000 N   0  0  0  0  0  0  0  0  0  0  0  0
    0.2010   -5.9462    0.0000 C   0  0  0  0  0  0  0  0  0  0  0  0
    1.5000   -5.1962    0.0000 C   0  0  0  0  0  0  0  0  0  0  0  0
    2.7990   -4.4462    0.0000 C   0  0  0  0  0  0  0  0  0  0  0  0
    2.2500   -6.4952    0.0000 O   0  0  0  0  0  0  0  0  0  0  0  0
    0.7500   -3.8971    0.0000 C   0  0  0  0  0  0  0  0  0  0  0  0
   -0.7500   -3.8971    0.0000 O   0  0  0  0  0  0  0  0  0  0  0  0
    1.5000   -2.5981    0.0000 N   0  0  0  0  0  0  0  0  0  0  0  0
    0.7500   -1.2990    0.0000 C   0  0  0  0  0  0  0  0  0  0  0  0
    1.5000    0.0000    0.0000 C   0  0  0  0  0  0  0  0  0  0  0  0
    0.7500    1.2990    0.0000 C   0  0  0  0  0  0  0  0  0  0  0  0
   -0.7500    1.2990    0.0000 C   0  0  0  0  0  0  0  0  0  0  0  0
   -1.5000    2.5981    0.0000 C   0  0  0  0  0  0  0  0  0  0  0  0
   -2.2500    3.8971    0.0000 N   0  0  0  0  0  0  0  0  0  0  0  0
   -1.5000    0.0000    0.0000 C   0  0  0  0  0  0  0  0  0  0  0  0
   -3.0000    0.0000    0.0000 C   0  0  0  0  0  0  0  0  0  0  0  0
   -4.5000    0.0000    0.0000 F   0  0  0  0  0  0  0  0  0  0  0  0
   -3.0000   -1.5000    0.0000 F   0  0  0  0  0  0  0  0  0  0  0  0
   -3.0000    1.5000    0.0000 F   0  0  0  0  0  0  0  0  0  0  0  0
   -0.7500   -1.2990    0.0000 C   0  0  0  0  0  0  0  0  0  0  0  0
   -1.0126   -8.3278    0.0000 N   0  0  0  0  0  0  0  0  0  0  0  0
   -0.5490   -9.7544    0.0000 C   0  0  0  0  0  0  0  0  0  0  0  0
   -1.4307  -10.9679    0.0000 Cl  0  0  0  0  0  0  0  0  0  0  0  0
  1  2  1  0
  2  3  2  0
  3  4  1  0
  4  5  1  0
  5  6  1  0
  6  7  1  6
  6  8  1  0
  6  9  1  0
  9 10  2  0
  9 11  1  0
 11 12  1  0
 12 13  2  0
 13 14  1  0
 14 15  2  0
 15 16  1  0
 16 17  3  0
 15 18  1  0
 18 19  1  0
 19 20  1  0
 19 21  1  0
 19 22  1  0
 18 23  2  0
  4 24  1  0
 24 25  2  0
 25 26  1  0
 25  2  1  0
 23 12  1  0
M  END
>  <assay_chembl_id>  (730) 
CHEMBL4676574

>  <assay_description>  (730) 
Antagonist activity at recombinant human AR expressed in HEK293 cells assessed as inhibition of R1881-induced transcriptional activity measured after 24 hrs by dual luciferase reporter gene assay

>  <parent_molecule_chembl_id>  (730) 
CHEMBL4752477

>  <canonical_smiles>  (730) 
Cc1cn(C[C@](C)(O)C(=O)Nc2ccc(C#N)c(C(F)(F)F)c2)nc1Cl

>  <standard_type>  (730) 
IC50

>  <standard_relation>  (730) 
=

>  <standard_value>  (730) 
332.0

>  <standard_units>  (730) 
nM

>  <target_pref_name>  (730) 
Androgen Receptor

>  <target_chembl_id>  (730) 
CHEMBL1871

>  <target_organism>  (730) 
Homo sapiens

>  <pchembl_median>  (730) 
5.32

$$$$
CHEMBL4739997
     RDKit          2D

 27 28  0  0  0  0  0  0  0  0999 V2000
    2.7990   -4.4462    0.0000 C   0  0  0  0  0  0  0  0  0  0  0  0
    1.5000   -5.1962    0.0000 C   0  0  0  0  0  0  0  0  0  0  0  0
    2.2500   -6.4952    0.0000 O   0  0  0  0  0  0  0  0  0  0  0  0
    0.2010   -5.9462    0.0000 C   0  0  0  0  0  0  0  0  0  0  0  0
    0.2010   -7.4462    0.0000 N   0  0  0  0  0  0  0  0  0  0  0  0
    1.4145   -8.3278    0.0000 C   0  0  0  0  0  0  0  0  0  0  0  0
    0.9510   -9.7544    0.0000 C   0  0  0  0  0  0  0  0  0  0  0  0
    1.8326  -10.9679    0.0000 C   0  0  0  0  0  0  0  0  0  0  0  0
    2.7143  -12.1815    0.0000 N   0  0  0  0  0  0  0  0  0  0  0  0
   -0.5490   -9.7544    0.0000 C   0  0  0  0  0  0  0  0  0  0  0  0
   -1.4307  -10.9679    0.0000 Br  0  0  0  0  0  0  0  0  0  0  0  0
   -1.0126   -8.3278    0.0000 N   0  0  0  0  0  0  0  0  0  0  0  0
    0.7500   -3.8971    0.0000 C   0  0  0  0  0  0  0  0  0  0  0  0
   -0.7500   -3.8971    0.0000 O   0  0  0  0  0  0  0  0  0  0  0  0
    1.5000   -2.5981    0.0000 N   0  0  0  0  0  0  0  0  0  0  0  0
    0.7500   -1.2990    0.0000 C   0  0  0  0  0  0  0  0  0  0  0  0
    1.5000    0.0000    0.0000 C   0  0  0  0  0  0  0  0  0  0  0  0
    0.7500    1.2990    0.0000 C   0  0  0  0  0  0  0  0  0  0  0  0
   -0.7500    1.2990    0.0000 C   0  0  0  0  0  0  0  0  0  0  0  0
   -1.5000    2.5981    0.0000 C   0  0  0  0  0  0  0  0  0  0  0  0
   -2.2500    3.8971    0.0000 N   0  0  0  0  0  0  0  0  0  0  0  0
   -1.5000    0.0000    0.0000 C   0  0  0  0  0  0  0  0  0  0  0  0
   -3.0000    0.0000    0.0000 C   0  0  0  0  0  0  0  0  0  0  0  0
   -4.5000    0.0000    0.0000 F   0  0  0  0  0  0  0  0  0  0  0  0
   -3.0000   -1.5000    0.0000 F   0  0  0  0  0  0  0  0  0  0  0  0
   -3.0000    1.5000    0.0000 F   0  0  0  0  0  0  0  0  0  0  0  0
   -0.7500   -1.2990    0.0000 C   0  0  0  0  0  0  0  0  0  0  0  0
  2  1  1  6
  2  3  1  0
  2  4  1  0
  4  5  1  0
  5  6  1  0
  6  7  2  0
  7  8  1  0
  8  9  3  0
  7 10  1  0
 10 11  1  0
 10 12  2  0
  2 13  1  0
 13 14  2  0
 13 15  1  0
 15 16  1  0
 16 17  2  0
 17 18  1  0
 18 19  2  0
 19 20  1  0
 20 21  3  0
 19 22  1  0
 22 23  1  0
 23 24  1  0
 23 25  1  0
 23 26  1  0
 22 27  2  0
 12  5  1  0
 27 16  1  0
M  END
>  <assay_chembl_id>  (731) 
CHEMBL4676574

>  <assay_description>  (731) 
Antagonist activity at recombinant human AR expressed in HEK293 cells assessed as inhibition of R1881-induced transcriptional activity measured after 24 hrs by dual luciferase reporter gene assay

>  <parent_molecule_chembl_id>  (731) 
CHEMBL4739997

>  <canonical_smiles>  (731) 
C[C@](O)(Cn1cc(C#N)c(Br)n1)C(=O)Nc1ccc(C#N)c(C(F)(F)F)c1

>  <standard_type>  (731) 
IC50

>  <standard_relation>  (731) 
=

>  <standard_value>  (731) 
181.0

>  <standard_units>  (731) 
nM

>  <target_pref_name>  (731) 
Androgen Receptor

>  <target_chembl_id>  (731) 
CHEMBL1871

>  <target_organism>  (731) 
Homo sapiens

>  <pchembl_median>  (731) 
6.21

$$$$
CHEMBL4782992
     RDKit          2D

 32 34  0  0  0  0  0  0  0  0999 V2000
   -0.8928   -7.6841    0.0000 C   0  0  0  0  0  0  0  0  0  0  0  0
    0.4775   -7.0740    0.0000 C   0  0  0  0  0  0  0  0  0  0  0  0
    1.0876   -8.4443    0.0000 O   0  0  0  0  0  0  0  0  0  0  0  0
    1.8478   -6.4639    0.0000 C   0  0  0  0  0  0  0  0  0  0  0  0
    3.0613   -7.3456    0.0000 N   0  0  0  0  0  0  0  0  0  0  0  0
    3.0613   -8.8456    0.0000 C   0  0  0  0  0  0  0  0  0  0  0  0
    4.4879   -9.3091    0.0000 C   0  0  0  0  0  0  0  0  0  0  0  0
    4.9515  -10.7357    0.0000 C   0  0  0  0  0  0  0  0  0  0  0  0
    6.4187  -11.0475    0.0000 C   0  0  0  0  0  0  0  0  0  0  0  0
    6.8822  -12.4741    0.0000 C   0  0  0  0  0  0  0  0  0  0  0  0
    5.8785  -13.5888    0.0000 C   0  0  0  0  0  0  0  0  0  0  0  0
    6.3420  -15.0154    0.0000 F   0  0  0  0  0  0  0  0  0  0  0  0
    4.4113  -13.2770    0.0000 C   0  0  0  0  0  0  0  0  0  0  0  0
    3.9478  -11.8504    0.0000 C   0  0  0  0  0  0  0  0  0  0  0  0
    5.3696   -8.0956    0.0000 C   0  0  0  0  0  0  0  0  0  0  0  0
    6.8696   -8.0956    0.0000 F   0  0  0  0  0  0  0  0  0  0  0  0
    4.4879   -6.8820    0.0000 N   0  0  0  0  0  0  0  0  0  0  0  0
   -0.1326   -5.7037    0.0000 C   0  0  0  0  0  0  0  0  0  0  0  0
    0.7491   -4.4901    0.0000 O   0  0  0  0  0  0  0  0  0  0  0  0
   -1.6244   -5.5469    0.0000 N   0  0  0  0  0  0  0  0  0  0  0  0
   -2.2345   -4.1765    0.0000 C   0  0  0  0  0  0  0  0  0  0  0  0
   -1.3528   -2.9630    0.0000 C   0  0  0  0  0  0  0  0  0  0  0  0
   -1.9629   -1.5927    0.0000 C   0  0  0  0  0  0  0  0  0  0  0  0
   -3.4547   -1.4359    0.0000 C   0  0  0  0  0  0  0  0  0  0  0  0
   -4.0648   -0.0656    0.0000 C   0  0  0  0  0  0  0  0  0  0  0  0
   -4.6749    1.3047    0.0000 N   0  0  0  0  0  0  0  0  0  0  0  0
   -4.3364   -2.6494    0.0000 C   0  0  0  0  0  0  0  0  0  0  0  0
   -5.8282   -2.4926    0.0000 C   0  0  0  0  0  0  0  0  0  0  0  0
   -7.3199   -2.3359    0.0000 F   0  0  0  0  0  0  0  0  0  0  0  0
   -5.9850   -3.9844    0.0000 F   0  0  0  0  0  0  0  0  0  0  0  0
   -5.6714   -1.0009    0.0000 F   0  0  0  0  0  0  0  0  0  0  0  0
   -3.7263   -4.0198    0.0000 C   0  0  0  0  0  0  0  0  0  0  0  0
  2  1  1  1
  2  3  1  0
  2  4  1  0
  4  5  1  0
  5  6  1  0
  6  7  2  0
  7  8  1  0
  8  9  2  0
  9 10  1  0
 10 11  2  0
 11 12  1  0
 11 13  1  0
 13 14  2  0
  7 15  1  0
 15 16  1  0
 15 17  2  0
  2 18  1  0
 18 19  2  0
 18 20  1  0
 20 21  1  0
 21 22  2  0
 22 23  1  0
 23 24  2  0
 24 25  1  0
 25 26  3  0
 24 27  1  0
 27 28  1  0
 28 29  1  0
 28 30  1  0
 28 31  1  0
 27 32  2  0
 17  5  1  0
 32 21  1  0
 14  8  1  0
M  END
>  <assay_chembl_id>  (732) 
CHEMBL4676574

>  <assay_description>  (732) 
Antagonist activity at recombinant human AR expressed in HEK293 cells assessed as inhibition of R1881-induced transcriptional activity measured after 24 hrs by dual luciferase reporter gene assay

>  <parent_molecule_chembl_id>  (732) 
CHEMBL4782992

>  <canonical_smiles>  (732) 
C[C@](O)(Cn1cc(-c2ccc(F)cc2)c(F)n1)C(=O)Nc1ccc(C#N)c(C(F)(F)F)c1

>  <standard_type>  (732) 
IC50

>  <standard_relation>  (732) 
=

>  <standard_value>  (732) 
285.0

>  <standard_units>  (732) 
nM

>  <target_pref_name>  (732) 
Androgen Receptor

>  <target_chembl_id>  (732) 
CHEMBL1871

>  <target_organism>  (732) 
Homo sapiens

>  <pchembl_median>  (732) 
5.21

$$$$
CHEMBL4800363
     RDKit          2D

 26 27  0  0  0  0  0  0  0  0999 V2000
    2.7990   -4.4462    0.0000 C   0  0  0  0  0  0  0  0  0  0  0  0
    1.5000   -5.1962    0.0000 C   0  0  0  0  0  0  0  0  0  0  0  0
    2.2500   -6.4952    0.0000 O   0  0  0  0  0  0  0  0  0  0  0  0
    0.2010   -5.9462    0.0000 C   0  0  0  0  0  0  0  0  0  0  0  0
    0.2010   -7.4462    0.0000 N   0  0  0  0  0  0  0  0  0  0  0  0
    1.4145   -8.3278    0.0000 C   0  0  0  0  0  0  0  0  0  0  0  0
    0.9510   -9.7544    0.0000 C   0  0  0  0  0  0  0  0  0  0  0  0
    1.8326  -10.9679    0.0000 F   0  0  0  0  0  0  0  0  0  0  0  0
   -0.5490   -9.7544    0.0000 C   0  0  0  0  0  0  0  0  0  0  0  0
   -1.0126   -8.3278    0.0000 N   0  0  0  0  0  0  0  0  0  0  0  0
    0.7500   -3.8971    0.0000 C   0  0  0  0  0  0  0  0  0  0  0  0
   -0.7500   -3.8971    0.0000 O   0  0  0  0  0  0  0  0  0  0  0  0
    1.5000   -2.5981    0.0000 N   0  0  0  0  0  0  0  0  0  0  0  0
    0.7500   -1.2990    0.0000 C   0  0  0  0  0  0  0  0  0  0  0  0
    1.5000    0.0000    0.0000 C   0  0  0  0  0  0  0  0  0  0  0  0
    0.7500    1.2990    0.0000 C   0  0  0  0  0  0  0  0  0  0  0  0
    1.5000    2.5981    0.0000 C   0  0  0  0  0  0  0  0  0  0  0  0
    2.2500    3.8971    0.0000 F   0  0  0  0  0  0  0  0  0  0  0  0
    2.7990    1.8481    0.0000 F   0  0  0  0  0  0  0  0  0  0  0  0
    0.2010    3.3481    0.0000 F   0  0  0  0  0  0  0  0  0  0  0  0
   -0.7500    1.2990    0.0000 C   0  0  0  0  0  0  0  0  0  0  0  0
   -1.5000    2.5981    0.0000 C   0  0  0  0  0  0  0  0  0  0  0  0
   -2.2500    3.8971    0.0000 N   0  0  0  0  0  0  0  0  0  0  0  0
   -1.5000    0.0000    0.0000 C   0  0  0  0  0  0  0  0  0  0  0  0
   -0.7500   -1.2990    0.0000 C   0  0  0  0  0  0  0  0  0  0  0  0
   -1.5000   -2.5981    0.0000 I   0  0  0  0  0  0  0  0  0  0  0  0
  2  1  1  6
  2  3  1  0
  2  4  1  0
  4  5  1  0
  5  6  1  0
  6  7  2  0
  7  8  1  0
  7  9  1  0
  9 10  2  0
  2 11  1  0
 11 12  2  0
 11 13  1  0
 13 14  1  0
 14 15  2  0
 15 16  1  0
 16 17  1  0
 17 18  1  0
 17 19  1  0
 17 20  1  0
 16 21  2  0
 21 22  1  0
 22 23  3  0
 21 24  1  0
 24 25  2  0
 25 26  1  0
 10  5  1  0
 25 14  1  0
M  END
>  <assay_chembl_id>  (733) 
CHEMBL4676574

>  <assay_description>  (733) 
Antagonist activity at recombinant human AR expressed in HEK293 cells assessed as inhibition of R1881-induced transcriptional activity measured after 24 hrs by dual luciferase reporter gene assay

>  <parent_molecule_chembl_id>  (733) 
CHEMBL4800363

>  <canonical_smiles>  (733) 
C[C@](O)(Cn1cc(F)cn1)C(=O)Nc1cc(C(F)(F)F)c(C#N)cc1I

>  <standard_type>  (733) 
IC50

>  <standard_relation>  (733) 
=

>  <standard_value>  (733) 
5450.0

>  <standard_units>  (733) 
nM

>  <target_pref_name>  (733) 
Androgen Receptor

>  <target_chembl_id>  (733) 
CHEMBL1871

>  <target_organism>  (733) 
Homo sapiens

>  <pchembl_median>  (733) 
5.68

$$$$
CHEMBL4741021
     RDKit          2D

 20 21  0  0  0  0  0  0  0  0999 V2000
    2.7990   -4.4462    0.0000 C   0  0  0  0  0  0  0  0  0  0  0  0
    1.5000   -5.1962    0.0000 C   0  0  0  0  0  0  0  0  0  0  0  0
    2.2500   -6.4952    0.0000 O   0  0  0  0  0  0  0  0  0  0  0  0
    0.2010   -5.9462    0.0000 C   0  0  0  0  0  0  0  0  0  0  0  0
    0.2010   -7.4462    0.0000 N   0  0  0  0  0  0  0  0  0  0  0  0
    1.4145   -8.3278    0.0000 C   0  0  0  0  0  0  0  0  0  0  0  0
    0.9510   -9.7544    0.0000 C   0  0  0  0  0  0  0  0  0  0  0  0
    1.8326  -10.9679    0.0000 F   0  0  0  0  0  0  0  0  0  0  0  0
   -0.5490   -9.7544    0.0000 C   0  0  0  0  0  0  0  0  0  0  0  0
   -1.0126   -8.3278    0.0000 N   0  0  0  0  0  0  0  0  0  0  0  0
    0.7500   -3.8971    0.0000 C   0  0  0  0  0  0  0  0  0  0  0  0
   -0.7500   -3.8971    0.0000 O   0  0  0  0  0  0  0  0  0  0  0  0
    1.5000   -2.5981    0.0000 N   0  0  0  0  0  0  0  0  0  0  0  0
    0.7500   -1.2990    0.0000 C   0  0  0  0  0  0  0  0  0  0  0  0
    1.5000    0.0000    0.0000 C   0  0  0  0  0  0  0  0  0  0  0  0
    0.7500    1.2990    0.0000 C   0  0  0  0  0  0  0  0  0  0  0  0
   -0.7500    1.2990    0.0000 N   0  0  0  0  0  0  0  0  0  0  0  0
   -1.5000    0.0000    0.0000 C   0  0  0  0  0  0  0  0  0  0  0  0
   -3.0000    0.0000    0.0000 Cl  0  0  0  0  0  0  0  0  0  0  0  0
   -0.7500   -1.2990    0.0000 C   0  0  0  0  0  0  0  0  0  0  0  0
  2  1  1  6
  2  3  1  0
  2  4  1  0
  4  5  1  0
  5  6  1  0
  6  7  2  0
  7  8  1  0
  7  9  1  0
  9 10  2  0
  2 11  1  0
 11 12  2  0
 11 13  1  0
 13 14  1  0
 14 15  2  0
 15 16  1  0
 16 17  2  0
 17 18  1  0
 18 19  1  0
 18 20  2  0
 10  5  1  0
 20 14  1  0
M  END
>  <assay_chembl_id>  (734) 
CHEMBL4676574

>  <assay_description>  (734) 
Antagonist activity at recombinant human AR expressed in HEK293 cells assessed as inhibition of R1881-induced transcriptional activity measured after 24 hrs by dual luciferase reporter gene assay

>  <parent_molecule_chembl_id>  (734) 
CHEMBL4741021

>  <canonical_smiles>  (734) 
C[C@](O)(Cn1cc(F)cn1)C(=O)Nc1ccnc(Cl)c1

>  <standard_type>  (734) 
IC50

>  <standard_relation>  (734) 
=

>  <standard_value>  (734) 
2470.0

>  <standard_units>  (734) 
nM

>  <target_pref_name>  (734) 
Androgen Receptor

>  <target_chembl_id>  (734) 
CHEMBL1871

>  <target_organism>  (734) 
Homo sapiens

>  <pchembl_median>  (734) 
6.22

$$$$
CHEMBL4779527
     RDKit          2D

 22 23  0  0  0  0  0  0  0  0999 V2000
    2.7990   -4.4462    0.0000 C   0  0  0  0  0  0  0  0  0  0  0  0
    1.5000   -5.1962    0.0000 C   0  0  0  0  0  0  0  0  0  0  0  0
    2.2500   -6.4952    0.0000 O   0  0  0  0  0  0  0  0  0  0  0  0
    0.2010   -5.9462    0.0000 C   0  0  0  0  0  0  0  0  0  0  0  0
    0.2010   -7.4462    0.0000 N   0  0  0  0  0  0  0  0  0  0  0  0
    1.4145   -8.3278    0.0000 C   0  0  0  0  0  0  0  0  0  0  0  0
    0.9510   -9.7544    0.0000 C   0  0  0  0  0  0  0  0  0  0  0  0
    1.8326  -10.9679    0.0000 F   0  0  0  0  0  0  0  0  0  0  0  0
   -0.5490   -9.7544    0.0000 C   0  0  0  0  0  0  0  0  0  0  0  0
   -1.0126   -8.3278    0.0000 N   0  0  0  0  0  0  0  0  0  0  0  0
    0.7500   -3.8971    0.0000 C   0  0  0  0  0  0  0  0  0  0  0  0
   -0.7500   -3.8971    0.0000 O   0  0  0  0  0  0  0  0  0  0  0  0
    1.5000   -2.5981    0.0000 N   0  0  0  0  0  0  0  0  0  0  0  0
    0.7500   -1.2990    0.0000 C   0  0  0  0  0  0  0  0  0  0  0  0
    1.5000    0.0000    0.0000 C   0  0  0  0  0  0  0  0  0  0  0  0
    0.7500    1.2990    0.0000 C   0  0  0  0  0  0  0  0  0  0  0  0
   -0.7500    1.2990    0.0000 C   0  0  0  0  0  0  0  0  0  0  0  0
   -1.5000    2.5981    0.0000 C   0  0  0  0  0  0  0  0  0  0  0  0
   -2.2500    3.8971    0.0000 N   0  0  0  0  0  0  0  0  0  0  0  0
   -1.5000    0.0000    0.0000 C   0  0  0  0  0  0  0  0  0  0  0  0
   -3.0000    0.0000    0.0000 Cl  0  0  0  0  0  0  0  0  0  0  0  0
   -0.7500   -1.2990    0.0000 C   0  0  0  0  0  0  0  0  0  0  0  0
  2  1  1  6
  2  3  1  0
  2  4  1  0
  4  5  1  0
  5  6  1  0
  6  7  2  0
  7  8  1  0
  7  9  1  0
  9 10  2  0
  2 11  1  0
 11 12  2  0
 11 13  1  0
 13 14  1  0
 14 15  2  0
 15 16  1  0
 16 17  2  0
 17 18  1  0
 18 19  3  0
 17 20  1  0
 20 21  1  0
 20 22  2  0
 10  5  1  0
 22 14  1  0
M  END
>  <assay_chembl_id>  (735) 
CHEMBL4676574

>  <assay_description>  (735) 
Antagonist activity at recombinant human AR expressed in HEK293 cells assessed as inhibition of R1881-induced transcriptional activity measured after 24 hrs by dual luciferase reporter gene assay

>  <parent_molecule_chembl_id>  (735) 
CHEMBL4779527

>  <canonical_smiles>  (735) 
C[C@](O)(Cn1cc(F)cn1)C(=O)Nc1ccc(C#N)c(Cl)c1

>  <standard_type>  (735) 
IC50

>  <standard_relation>  (735) 
=

>  <standard_value>  (735) 
427.0

>  <standard_units>  (735) 
nM

>  <target_pref_name>  (735) 
Androgen Receptor

>  <target_chembl_id>  (735) 
CHEMBL1871

>  <target_organism>  (735) 
Homo sapiens

>  <pchembl_median>  (735) 
5.4

$$$$
CHEMBL4776221
     RDKit          2D

 32 33  0  0  0  0  0  0  0  0999 V2000
   -5.4528  -13.3597    0.0000 C   0  0  0  0  0  0  0  0  0  0  0  0
   -5.2960  -11.8679    0.0000 C   0  0  0  0  0  0  0  0  0  0  0  0
   -5.1392  -10.3761    0.0000 C   0  0  0  0  0  0  0  0  0  0  0  0
   -6.7877  -11.7111    0.0000 C   0  0  0  0  0  0  0  0  0  0  0  0
   -3.8042  -12.0247    0.0000 O   0  0  0  0  0  0  0  0  0  0  0  0
   -2.9225  -10.8111    0.0000 C   0  0  0  0  0  0  0  0  0  0  0  0
   -3.5326   -9.4408    0.0000 O   0  0  0  0  0  0  0  0  0  0  0  0
   -1.4307  -10.9679    0.0000 N   0  0  0  0  0  0  0  0  0  0  0  0
   -0.5490   -9.7544    0.0000 C   0  0  0  0  0  0  0  0  0  0  0  0
    0.9510   -9.7544    0.0000 C   0  0  0  0  0  0  0  0  0  0  0  0
    1.4145   -8.3278    0.0000 N   0  0  0  0  0  0  0  0  0  0  0  0
    0.2010   -7.4462    0.0000 N   0  0  0  0  0  0  0  0  0  0  0  0
    0.2010   -5.9462    0.0000 C   0  0  0  0  0  0  0  0  0  0  0  0
    1.5000   -5.1962    0.0000 C   0  0  0  0  0  0  0  0  0  0  0  0
    2.7990   -4.4462    0.0000 C   0  0  0  0  0  0  0  0  0  0  0  0
    2.2500   -6.4952    0.0000 O   0  0  0  0  0  0  0  0  0  0  0  0
    0.7500   -3.8971    0.0000 C   0  0  0  0  0  0  0  0  0  0  0  0
   -0.7500   -3.8971    0.0000 O   0  0  0  0  0  0  0  0  0  0  0  0
    1.5000   -2.5981    0.0000 N   0  0  0  0  0  0  0  0  0  0  0  0
    0.7500   -1.2990    0.0000 C   0  0  0  0  0  0  0  0  0  0  0  0
    1.5000    0.0000    0.0000 C   0  0  0  0  0  0  0  0  0  0  0  0
    0.7500    1.2990    0.0000 N   0  0  0  0  0  0  0  0  0  0  0  0
   -0.7500    1.2990    0.0000 C   0  0  0  0  0  0  0  0  0  0  0  0
   -1.5000    2.5981    0.0000 C   0  0  0  0  0  0  0  0  0  0  0  0
   -2.2500    3.8971    0.0000 N   0  0  0  0  0  0  0  0  0  0  0  0
   -1.5000    0.0000    0.0000 C   0  0  0  0  0  0  0  0  0  0  0  0
   -3.0000    0.0000    0.0000 C   0  0  0  0  0  0  0  0  0  0  0  0
   -4.5000    0.0000    0.0000 F   0  0  0  0  0  0  0  0  0  0  0  0
   -3.0000    1.5000    0.0000 F   0  0  0  0  0  0  0  0  0  0  0  0
   -3.0000   -1.5000    0.0000 F   0  0  0  0  0  0  0  0  0  0  0  0
   -0.7500   -1.2990    0.0000 C   0  0  0  0  0  0  0  0  0  0  0  0
   -1.0126   -8.3278    0.0000 C   0  0  0  0  0  0  0  0  0  0  0  0
  1  2  1  0
  2  3  1  0
  2  4  1  0
  2  5  1  0
  5  6  1  0
  6  7  2  0
  6  8  1  0
  8  9  1  0
  9 10  1  0
 10 11  2  0
 11 12  1  0
 12 13  1  0
 13 14  1  0
 14 15  1  6
 14 16  1  0
 14 17  1  0
 17 18  2  0
 17 19  1  0
 19 20  1  0
 20 21  2  0
 21 22  1  0
 22 23  2  0
 23 24  1  0
 24 25  3  0
 23 26  1  0
 26 27  1  0
 27 28  1  0
 27 29  1  0
 27 30  1  0
 26 31  2  0
 12 32  1  0
 32  9  2  0
 31 20  1  0
M  END
>  <assay_chembl_id>  (736) 
CHEMBL4676574

>  <assay_description>  (736) 
Antagonist activity at recombinant human AR expressed in HEK293 cells assessed as inhibition of R1881-induced transcriptional activity measured after 24 hrs by dual luciferase reporter gene assay

>  <parent_molecule_chembl_id>  (736) 
CHEMBL4776221

>  <canonical_smiles>  (736) 
CC(C)(C)OC(=O)Nc1cnn(C[C@](C)(O)C(=O)Nc2cnc(C#N)c(C(F)(F)F)c2)c1

>  <standard_type>  (736) 
IC50

>  <standard_relation>  (736) 
=

>  <standard_value>  (736) 
6108.0

>  <standard_units>  (736) 
nM

>  <target_pref_name>  (736) 
Androgen Receptor

>  <target_chembl_id>  (736) 
CHEMBL1871

>  <target_organism>  (736) 
Homo sapiens

>  <pchembl_median>  (736) 
6.0

$$$$
CHEMBL4778795
     RDKit          2D

 26 27  0  0  0  0  0  0  0  0999 V2000
    2.7990   -4.4462    0.0000 C   0  0  0  0  0  0  0  0  0  0  0  0
    1.5000   -5.1962    0.0000 C   0  0  0  0  0  0  0  0  0  0  0  0
    2.2500   -6.4952    0.0000 O   0  0  0  0  0  0  0  0  0  0  0  0
    0.2010   -5.9462    0.0000 C   0  0  0  0  0  0  0  0  0  0  0  0
    0.2010   -7.4462    0.0000 N   0  0  0  0  0  0  0  0  0  0  0  0
    1.4145   -8.3278    0.0000 C   0  0  0  0  0  0  0  0  0  0  0  0
    0.9510   -9.7544    0.0000 C   0  0  0  0  0  0  0  0  0  0  0  0
    1.8326  -10.9679    0.0000 C   0  0  0  0  0  0  0  0  0  0  0  0
    2.7143  -12.1815    0.0000 N   0  0  0  0  0  0  0  0  0  0  0  0
   -0.5490   -9.7544    0.0000 C   0  0  0  0  0  0  0  0  0  0  0  0
   -1.0126   -8.3278    0.0000 N   0  0  0  0  0  0  0  0  0  0  0  0
    0.7500   -3.8971    0.0000 C   0  0  0  0  0  0  0  0  0  0  0  0
   -0.7500   -3.8971    0.0000 O   0  0  0  0  0  0  0  0  0  0  0  0
    1.5000   -2.5981    0.0000 N   0  0  0  0  0  0  0  0  0  0  0  0
    0.7500   -1.2990    0.0000 C   0  0  0  0  0  0  0  0  0  0  0  0
    1.5000    0.0000    0.0000 C   0  0  0  0  0  0  0  0  0  0  0  0
    0.7500    1.2990    0.0000 N   0  0  0  0  0  0  0  0  0  0  0  0
   -0.7500    1.2990    0.0000 C   0  0  0  0  0  0  0  0  0  0  0  0
   -1.5000    2.5981    0.0000 C   0  0  0  0  0  0  0  0  0  0  0  0
   -2.2500    3.8971    0.0000 N   0  0  0  0  0  0  0  0  0  0  0  0
   -1.5000    0.0000    0.0000 C   0  0  0  0  0  0  0  0  0  0  0  0
   -3.0000    0.0000    0.0000 C   0  0  0  0  0  0  0  0  0  0  0  0
   -4.5000    0.0000    0.0000 F   0  0  0  0  0  0  0  0  0  0  0  0
   -3.0000    1.5000    0.0000 F   0  0  0  0  0  0  0  0  0  0  0  0
   -3.0000   -1.5000    0.0000 F   0  0  0  0  0  0  0  0  0  0  0  0
   -0.7500   -1.2990    0.0000 C   0  0  0  0  0  0  0  0  0  0  0  0
  2  1  1  6
  2  3  1  0
  2  4  1  0
  4  5  1  0
  5  6  1  0
  6  7  2  0
  7  8  1  0
  8  9  3  0
  7 10  1  0
 10 11  2  0
  2 12  1  0
 12 13  2  0
 12 14  1  0
 14 15  1  0
 15 16  2  0
 16 17  1  0
 17 18  2  0
 18 19  1  0
 19 20  3  0
 18 21  1  0
 21 22  1  0
 22 23  1  0
 22 24  1  0
 22 25  1  0
 21 26  2  0
 11  5  1  0
 26 15  1  0
M  END
>  <assay_chembl_id>  (737) 
CHEMBL4676574

>  <assay_description>  (737) 
Antagonist activity at recombinant human AR expressed in HEK293 cells assessed as inhibition of R1881-induced transcriptional activity measured after 24 hrs by dual luciferase reporter gene assay

>  <parent_molecule_chembl_id>  (737) 
CHEMBL4778795

>  <canonical_smiles>  (737) 
C[C@](O)(Cn1cc(C#N)cn1)C(=O)Nc1cnc(C#N)c(C(F)(F)F)c1

>  <standard_type>  (737) 
IC50

>  <standard_relation>  (737) 
=

>  <standard_value>  (737) 
59.0

>  <standard_units>  (737) 
nM

>  <target_pref_name>  (737) 
Androgen Receptor

>  <target_chembl_id>  (737) 
CHEMBL1871

>  <target_organism>  (737) 
Homo sapiens

>  <pchembl_median>  (737) 
4.65

$$$$
CHEMBL4790541
     RDKit          2D

 28 29  0  0  0  0  0  0  0  0999 V2000
    2.7990   -4.4462    0.0000 C   0  0  0  0  0  0  0  0  0  0  0  0
    1.5000   -5.1962    0.0000 C   0  0  0  0  0  0  0  0  0  0  0  0
    2.2500   -6.4952    0.0000 O   0  0  0  0  0  0  0  0  0  0  0  0
    0.2010   -5.9462    0.0000 C   0  0  0  0  0  0  0  0  0  0  0  0
    0.2010   -7.4462    0.0000 N   0  0  0  0  0  0  0  0  0  0  0  0
    1.4145   -8.3278    0.0000 C   0  0  0  0  0  0  0  0  0  0  0  0
    0.9510   -9.7544    0.0000 C   0  0  0  0  0  0  0  0  0  0  0  0
    1.8326  -10.9679    0.0000 C   0  0  0  0  0  0  0  0  0  0  0  0
    2.7143  -12.1815    0.0000 F   0  0  0  0  0  0  0  0  0  0  0  0
    0.6191  -11.8496    0.0000 F   0  0  0  0  0  0  0  0  0  0  0  0
    3.0462  -10.0863    0.0000 F   0  0  0  0  0  0  0  0  0  0  0  0
   -0.5490   -9.7544    0.0000 C   0  0  0  0  0  0  0  0  0  0  0  0
   -1.0126   -8.3278    0.0000 N   0  0  0  0  0  0  0  0  0  0  0  0
    0.7500   -3.8971    0.0000 C   0  0  0  0  0  0  0  0  0  0  0  0
   -0.7500   -3.8971    0.0000 O   0  0  0  0  0  0  0  0  0  0  0  0
    1.5000   -2.5981    0.0000 N   0  0  0  0  0  0  0  0  0  0  0  0
    0.7500   -1.2990    0.0000 C   0  0  0  0  0  0  0  0  0  0  0  0
    1.5000    0.0000    0.0000 C   0  0  0  0  0  0  0  0  0  0  0  0
    0.7500    1.2990    0.0000 N   0  0  0  0  0  0  0  0  0  0  0  0
   -0.7500    1.2990    0.0000 C   0  0  0  0  0  0  0  0  0  0  0  0
   -1.5000    2.5981    0.0000 C   0  0  0  0  0  0  0  0  0  0  0  0
   -2.2500    3.8971    0.0000 N   0  0  0  0  0  0  0  0  0  0  0  0
   -1.5000    0.0000    0.0000 C   0  0  0  0  0  0  0  0  0  0  0  0
   -3.0000    0.0000    0.0000 C   0  0  0  0  0  0  0  0  0  0  0  0
   -4.5000    0.0000    0.0000 F   0  0  0  0  0  0  0  0  0  0  0  0
   -3.0000    1.5000    0.0000 F   0  0  0  0  0  0  0  0  0  0  0  0
   -3.0000   -1.5000    0.0000 F   0  0  0  0  0  0  0  0  0  0  0  0
   -0.7500   -1.2990    0.0000 C   0  0  0  0  0  0  0  0  0  0  0  0
  2  1  1  6
  2  3  1  0
  2  4  1  0
  4  5  1  0
  5  6  1  0
  6  7  2  0
  7  8  1  0
  8  9  1  0
  8 10  1  0
  8 11  1  0
  7 12  1  0
 12 13  2  0
  2 14  1  0
 14 15  2  0
 14 16  1  0
 16 17  1  0
 17 18  2  0
 18 19  1  0
 19 20  2  0
 20 21  1  0
 21 22  3  0
 20 23  1  0
 23 24  1  0
 24 25  1  0
 24 26  1  0
 24 27  1  0
 23 28  2  0
 13  5  1  0
 28 17  1  0
M  END
>  <assay_chembl_id>  (738) 
CHEMBL4676574

>  <assay_description>  (738) 
Antagonist activity at recombinant human AR expressed in HEK293 cells assessed as inhibition of R1881-induced transcriptional activity measured after 24 hrs by dual luciferase reporter gene assay

>  <parent_molecule_chembl_id>  (738) 
CHEMBL4790541

>  <canonical_smiles>  (738) 
C[C@](O)(Cn1cc(C(F)(F)F)cn1)C(=O)Nc1cnc(C#N)c(C(F)(F)F)c1

>  <standard_type>  (738) 
IC50

>  <standard_relation>  (738) 
=

>  <standard_value>  (738) 
208.0

>  <standard_units>  (738) 
nM

>  <target_pref_name>  (738) 
Androgen Receptor

>  <target_chembl_id>  (738) 
CHEMBL1871

>  <target_organism>  (738) 
Homo sapiens

>  <pchembl_median>  (738) 
5.21

$$$$
CHEMBL218490
     RDKit          2D

 19 20  0  0  0  0  0  0  0  0999 V2000
   -6.1149    1.8303    0.0000 C   0  0  0  0  0  0  0  0  0  0  0  0
   -4.6883    2.2939    0.0000 C   0  0  0  0  0  0  0  0  0  0  0  0
   -3.5736    1.2902    0.0000 N   0  0  0  0  0  0  0  0  0  0  0  0
   -2.1470    1.7537    0.0000 C   0  0  0  0  0  0  0  0  0  0  0  0
   -1.8351    3.2209    0.0000 C   0  0  0  0  0  0  0  0  0  0  0  0
   -0.4086    3.6844    0.0000 C   0  0  0  0  0  0  0  0  0  0  0  0
   -0.0967    5.1517    0.0000 C   0  0  0  0  0  0  0  0  0  0  0  0
    0.7062    2.6807    0.0000 S   0  0  0  0  0  0  0  0  0  0  0  0
    1.5010    3.9528    0.0000 O   0  0  0  0  0  0  0  0  0  0  0  0
    2.0969    2.1188    0.0000 O   0  0  0  0  0  0  0  0  0  0  0  0
    0.3943    1.2135    0.0000 C   0  0  0  0  0  0  0  0  0  0  0  0
    1.2760    0.0000    0.0000 S   0  0  0  0  0  0  0  0  0  0  0  0
    0.3943   -1.2135    0.0000 C   0  0  0  0  0  0  0  0  0  0  0  0
    0.8578   -2.6401    0.0000 S   0  0  0  0  0  0  0  0  0  0  0  0
    1.3213   -4.0667    0.0000 N   0  0  0  0  0  0  0  0  0  0  0  0
   -0.5688   -3.1036    0.0000 O   0  0  0  0  0  0  0  0  0  0  0  0
    2.2844   -2.1766    0.0000 O   0  0  0  0  0  0  0  0  0  0  0  0
   -1.0323   -0.7500    0.0000 C   0  0  0  0  0  0  0  0  0  0  0  0
   -1.0323    0.7500    0.0000 C   0  0  0  0  0  0  0  0  0  0  0  0
  1  2  1  0
  2  3  1  0
  4  3  1  1
  4  5  1  0
  5  6  1  0
  6  7  1  6
  6  8  1  0
  8  9  2  0
  8 10  2  0
  8 11  1  0
 11 12  1  0
 12 13  1  0
 13 14  1  0
 14 15  1  0
 14 16  2  0
 14 17  2  0
 13 18  2  0
 18 19  1  0
 19  4  1  0
 19 11  2  0
M  END
>  <assay_chembl_id>  (739) 
CHEMBL4676574

>  <assay_description>  (739) 
Antagonist activity at recombinant human AR expressed in HEK293 cells assessed as inhibition of R1881-induced transcriptional activity measured after 24 hrs by dual luciferase reporter gene assay

>  <parent_molecule_chembl_id>  (739) 
CHEMBL218490

>  <canonical_smiles>  (739) 
CCN[C@H]1C[C@H](C)S(=O)(=O)c2sc(S(N)(=O)=O)cc21

>  <standard_type>  (739) 
IC50

>  <standard_relation>  (739) 
=

>  <standard_value>  (739) 
65.0

>  <standard_units>  (739) 
nM

>  <target_pref_name>  (739) 
Androgen Receptor

>  <target_chembl_id>  (739) 
CHEMBL1871

>  <target_organism>  (739) 
Homo sapiens

>  <pchembl_median>  (739) 
4.81

$$$$
CHEMBL4740742
     RDKit          2D

 26 27  0  0  0  0  0  0  0  0999 V2000
    4.5000    0.0000    0.0000 N   0  0  0  0  0  0  0  0  0  0  0  0
    3.0000    0.0000    0.0000 C   0  0  0  0  0  0  0  0  0  0  0  0
    1.5000    0.0000    0.0000 C   0  0  0  0  0  0  0  0  0  0  0  0
    0.7500   -1.2990    0.0000 C   0  0  0  0  0  0  0  0  0  0  0  0
   -0.7500   -1.2990    0.0000 C   0  0  0  0  0  0  0  0  0  0  0  0
   -1.5000    0.0000    0.0000 C   0  0  0  0  0  0  0  0  0  0  0  0
   -3.0000    0.0000    0.0000 N   0  0  0  0  0  0  0  0  0  0  0  0
   -3.7500    1.2990    0.0000 C   0  0  0  0  0  0  0  0  0  0  0  0
   -3.0000    2.5981    0.0000 O   0  0  0  0  0  0  0  0  0  0  0  0
   -5.2500    1.2990    0.0000 C   0  0  0  0  0  0  0  0  0  0  0  0
   -6.0000    2.5981    0.0000 S   0  0  0  0  0  0  0  0  0  0  0  0
   -7.2990    1.8481    0.0000 O   0  0  0  0  0  0  0  0  0  0  0  0
   -4.7010    3.3481    0.0000 O   0  0  0  0  0  0  0  0  0  0  0  0
   -6.7500    3.8971    0.0000 C   0  0  0  0  0  0  0  0  0  0  0  0
   -6.0000    5.1962    0.0000 C   0  0  0  0  0  0  0  0  0  0  0  0
   -6.7500    6.4952    0.0000 C   0  0  0  0  0  0  0  0  0  0  0  0
   -8.2500    6.4952    0.0000 C   0  0  0  0  0  0  0  0  0  0  0  0
   -9.0000    7.7942    0.0000 F   0  0  0  0  0  0  0  0  0  0  0  0
   -9.0000    5.1962    0.0000 C   0  0  0  0  0  0  0  0  0  0  0  0
   -8.2500    3.8971    0.0000 C   0  0  0  0  0  0  0  0  0  0  0  0
   -0.7500    1.2990    0.0000 C   0  0  0  0  0  0  0  0  0  0  0  0
    0.7500    1.2990    0.0000 C   0  0  0  0  0  0  0  0  0  0  0  0
    1.5000    2.5981    0.0000 C   0  0  0  0  0  0  0  0  0  0  0  0
    2.2500    3.8971    0.0000 F   0  0  0  0  0  0  0  0  0  0  0  0
    0.2010    3.3481    0.0000 F   0  0  0  0  0  0  0  0  0  0  0  0
    2.7990    1.8481    0.0000 F   0  0  0  0  0  0  0  0  0  0  0  0
  1  2  3  0
  2  3  1  0
  3  4  2  0
  4  5  1  0
  5  6  2  0
  6  7  1  0
  7  8  1  0
  8  9  2  0
  8 10  1  0
 10 11  1  0
 11 12  2  0
 11 13  2  0
 11 14  1  0
 14 15  2  0
 15 16  1  0
 16 17  2  0
 17 18  1  0
 17 19  1  0
 19 20  2  0
  6 21  1  0
 21 22  2  0
 22 23  1  0
 23 24  1  0
 23 25  1  0
 23 26  1  0
 22  3  1  0
 20 14  1  0
M  END
>  <assay_chembl_id>  (740) 
CHEMBL4676574

>  <assay_description>  (740) 
Antagonist activity at recombinant human AR expressed in HEK293 cells assessed as inhibition of R1881-induced transcriptional activity measured after 24 hrs by dual luciferase reporter gene assay

>  <parent_molecule_chembl_id>  (740) 
CHEMBL4740742

>  <canonical_smiles>  (740) 
N#Cc1ccc(NC(=O)CS(=O)(=O)c2ccc(F)cc2)cc1C(F)(F)F

>  <standard_type>  (740) 
IC50

>  <standard_relation>  (740) 
=

>  <standard_value>  (740) 
248.0

>  <standard_units>  (740) 
nM

>  <target_pref_name>  (740) 
Androgen Receptor

>  <target_chembl_id>  (740) 
CHEMBL1871

>  <target_organism>  (740) 
Homo sapiens

>  <pchembl_median>  (740) 
4.84

$$$$
CHEMBL4741767
     RDKit          2D

 35 37  0  0  0  0  0  0  0  0999 V2000
  -16.4458   -7.0976    0.0000 C   0  0  0  0  0  0  0  0  0  0  0  0
  -14.9458   -7.0976    0.0000 O   0  0  0  0  0  0  0  0  0  0  0  0
  -14.1958   -5.7986    0.0000 C   0  0  0  0  0  0  0  0  0  0  0  0
  -14.9458   -4.4996    0.0000 O   0  0  0  0  0  0  0  0  0  0  0  0
  -12.6958   -5.7986    0.0000 N   0  0  0  0  0  0  0  0  0  0  0  0
  -11.9458   -4.4996    0.0000 C   0  0  0  0  0  0  0  0  0  0  0  0
  -12.6958   -3.2005    0.0000 C   0  0  0  0  0  0  0  0  0  0  0  0
  -11.9458   -1.9015    0.0000 C   0  0  0  0  0  0  0  0  0  0  0  0
  -10.4458   -1.9015    0.0000 C   0  0  0  0  0  0  0  0  0  0  0  0
   -9.6958   -0.6024    0.0000 C   0  0  0  0  0  0  0  0  0  0  0  0
  -10.3059    0.7679    0.0000 C   0  0  0  0  0  0  0  0  0  0  0  0
   -9.1911    1.7716    0.0000 N   0  0  0  0  0  0  0  0  0  0  0  0
   -7.8921    1.0216    0.0000 N   0  0  0  0  0  0  0  0  0  0  0  0
   -6.5218    1.6317    0.0000 C   0  0  0  0  0  0  0  0  0  0  0  0
   -6.3650    3.1235    0.0000 C   0  0  0  0  0  0  0  0  0  0  0  0
   -6.2082    4.6152    0.0000 C   0  0  0  0  0  0  0  0  0  0  0  0
   -7.8568    3.2803    0.0000 O   0  0  0  0  0  0  0  0  0  0  0  0
   -4.8732    2.9667    0.0000 C   0  0  0  0  0  0  0  0  0  0  0  0
   -4.2631    1.5963    0.0000 O   0  0  0  0  0  0  0  0  0  0  0  0
   -3.9915    4.1802    0.0000 N   0  0  0  0  0  0  0  0  0  0  0  0
   -2.4998    4.0234    0.0000 C   0  0  0  0  0  0  0  0  0  0  0  0
   -1.8896    2.6531    0.0000 C   0  0  0  0  0  0  0  0  0  0  0  0
   -0.3979    2.4963    0.0000 C   0  0  0  0  0  0  0  0  0  0  0  0
    0.4838    3.7098    0.0000 C   0  0  0  0  0  0  0  0  0  0  0  0
    1.9756    3.5530    0.0000 C   0  0  0  0  0  0  0  0  0  0  0  0
    3.4674    3.3962    0.0000 N   0  0  0  0  0  0  0  0  0  0  0  0
   -0.1263    5.0801    0.0000 C   0  0  0  0  0  0  0  0  0  0  0  0
    0.7554    6.2937    0.0000 C   0  0  0  0  0  0  0  0  0  0  0  0
    1.6371    7.5072    0.0000 F   0  0  0  0  0  0  0  0  0  0  0  0
   -0.4581    7.1753    0.0000 F   0  0  0  0  0  0  0  0  0  0  0  0
    1.9689    5.4120    0.0000 F   0  0  0  0  0  0  0  0  0  0  0  0
   -1.6181    5.2369    0.0000 C   0  0  0  0  0  0  0  0  0  0  0  0
   -8.2040   -0.4456    0.0000 C   0  0  0  0  0  0  0  0  0  0  0  0
   -9.6958   -3.2005    0.0000 C   0  0  0  0  0  0  0  0  0  0  0  0
  -10.4458   -4.4996    0.0000 C   0  0  0  0  0  0  0  0  0  0  0  0
  1  2  1  0
  2  3  1  0
  3  4  2  0
  3  5  1  0
  5  6  1  0
  6  7  2  0
  7  8  1  0
  8  9  2  0
  9 10  1  0
 10 11  1  0
 11 12  2  0
 12 13  1  0
 13 14  1  0
 14 15  1  0
 15 16  1  1
 15 17  1  0
 15 18  1  0
 18 19  2  0
 18 20  1  0
 20 21  1  0
 21 22  2  0
 22 23  1  0
 23 24  2  0
 24 25  1  0
 25 26  3  0
 24 27  1  0
 27 28  1  0
 28 29  1  0
 28 30  1  0
 28 31  1  0
 27 32  2  0
 13 33  1  0
  9 34  1  0
 34 35  2  0
 35  6  1  0
 33 10  2  0
 32 21  1  0
M  END
>  <assay_chembl_id>  (741) 
CHEMBL4676574

>  <assay_description>  (741) 
Antagonist activity at recombinant human AR expressed in HEK293 cells assessed as inhibition of R1881-induced transcriptional activity measured after 24 hrs by dual luciferase reporter gene assay

>  <parent_molecule_chembl_id>  (741) 
CHEMBL4741767

>  <canonical_smiles>  (741) 
COC(=O)Nc1ccc(-c2cnn(C[C@](C)(O)C(=O)Nc3ccc(C#N)c(C(F)(F)F)c3)c2)cc1

>  <standard_type>  (741) 
IC50

>  <standard_relation>  (741) 
=

>  <standard_value>  (741) 
827.0

>  <standard_units>  (741) 
nM

>  <target_pref_name>  (741) 
Androgen Receptor

>  <target_chembl_id>  (741) 
CHEMBL1871

>  <target_organism>  (741) 
Homo sapiens

>  <pchembl_median>  (741) 
5.18

$$$$
CHEMBL4752893
     RDKit          2D

 38 40  0  0  0  0  0  0  0  0999 V2000
    7.2990   -1.8481    0.0000 C   0  0  0  0  0  0  0  0  0  0  0  0
    6.0000   -2.5981    0.0000 C   0  0  0  0  0  0  0  0  0  0  0  0
    4.7010   -3.3481    0.0000 C   0  0  0  0  0  0  0  0  0  0  0  0
    6.7500   -3.8971    0.0000 C   0  0  0  0  0  0  0  0  0  0  0  0
    5.2500   -1.2990    0.0000 O   0  0  0  0  0  0  0  0  0  0  0  0
    3.7500   -1.2990    0.0000 C   0  0  0  0  0  0  0  0  0  0  0  0
    3.0000   -2.5981    0.0000 O   0  0  0  0  0  0  0  0  0  0  0  0
    3.0000    0.0000    0.0000 N   0  0  0  0  0  0  0  0  0  0  0  0
    1.5000    0.0000    0.0000 C   0  0  0  0  0  0  0  0  0  0  0  0
    0.7500   -1.2990    0.0000 C   0  0  0  0  0  0  0  0  0  0  0  0
   -0.7500   -1.2990    0.0000 C   0  0  0  0  0  0  0  0  0  0  0  0
   -1.5000    0.0000    0.0000 C   0  0  0  0  0  0  0  0  0  0  0  0
   -3.0000    0.0000    0.0000 C   0  0  0  0  0  0  0  0  0  0  0  0
   -3.8817   -1.2135    0.0000 C   0  0  0  0  0  0  0  0  0  0  0  0
   -5.3083   -0.7500    0.0000 N   0  0  0  0  0  0  0  0  0  0  0  0
   -5.3083    0.7500    0.0000 N   0  0  0  0  0  0  0  0  0  0  0  0
   -6.5218    1.6317    0.0000 C   0  0  0  0  0  0  0  0  0  0  0  0
   -7.8921    1.0216    0.0000 C   0  0  0  0  0  0  0  0  0  0  0  0
   -9.2624    0.4115    0.0000 C   0  0  0  0  0  0  0  0  0  0  0  0
   -7.2820   -0.3487    0.0000 O   0  0  0  0  0  0  0  0  0  0  0  0
   -8.5022    2.3919    0.0000 C   0  0  0  0  0  0  0  0  0  0  0  0
   -7.6205    3.6054    0.0000 O   0  0  0  0  0  0  0  0  0  0  0  0
   -9.9940    2.5487    0.0000 N   0  0  0  0  0  0  0  0  0  0  0  0
  -10.6041    3.9190    0.0000 C   0  0  0  0  0  0  0  0  0  0  0  0
   -9.7224    5.1325    0.0000 C   0  0  0  0  0  0  0  0  0  0  0  0
  -10.3325    6.5028    0.0000 C   0  0  0  0  0  0  0  0  0  0  0  0
  -11.8243    6.6596    0.0000 C   0  0  0  0  0  0  0  0  0  0  0  0
  -12.4344    8.0300    0.0000 C   0  0  0  0  0  0  0  0  0  0  0  0
  -13.0445    9.4003    0.0000 N   0  0  0  0  0  0  0  0  0  0  0  0
  -12.7060    5.4461    0.0000 C   0  0  0  0  0  0  0  0  0  0  0  0
  -14.1978    5.6029    0.0000 C   0  0  0  0  0  0  0  0  0  0  0  0
  -15.6896    5.7597    0.0000 F   0  0  0  0  0  0  0  0  0  0  0  0
  -14.3546    4.1111    0.0000 F   0  0  0  0  0  0  0  0  0  0  0  0
  -14.0410    7.0947    0.0000 F   0  0  0  0  0  0  0  0  0  0  0  0
  -12.0959    4.0758    0.0000 C   0  0  0  0  0  0  0  0  0  0  0  0
   -3.8817    1.2135    0.0000 C   0  0  0  0  0  0  0  0  0  0  0  0
   -0.7500    1.2990    0.0000 C   0  0  0  0  0  0  0  0  0  0  0  0
    0.7500    1.2990    0.0000 C   0  0  0  0  0  0  0  0  0  0  0  0
  1  2  1  0
  2  3  1  0
  2  4  1  0
  2  5  1  0
  5  6  1  0
  6  7  2  0
  6  8  1  0
  8  9  1  0
  9 10  2  0
 10 11  1  0
 11 12  2  0
 12 13  1  0
 13 14  1  0
 14 15  2  0
 15 16  1  0
 16 17  1  0
 17 18  1  0
 18 19  1  1
 18 20  1  0
 18 21  1  0
 21 22  2  0
 21 23  1  0
 23 24  1  0
 24 25  2  0
 25 26  1  0
 26 27  2  0
 27 28  1  0
 28 29  3  0
 27 30  1  0
 30 31  1  0
 31 32  1  0
 31 33  1  0
 31 34  1  0
 30 35  2  0
 16 36  1  0
 12 37  1  0
 37 38  2  0
 38  9  1  0
 36 13  2  0
 35 24  1  0
M  END
>  <assay_chembl_id>  (742) 
CHEMBL4676574

>  <assay_description>  (742) 
Antagonist activity at recombinant human AR expressed in HEK293 cells assessed as inhibition of R1881-induced transcriptional activity measured after 24 hrs by dual luciferase reporter gene assay

>  <parent_molecule_chembl_id>  (742) 
CHEMBL4752893

>  <canonical_smiles>  (742) 
CC(C)(C)OC(=O)Nc1ccc(-c2cnn(C[C@](C)(O)C(=O)Nc3ccc(C#N)c(C(F)(F)F)c3)c2)cc1

>  <standard_type>  (742) 
IC50

>  <standard_relation>  (742) 
=

>  <standard_value>  (742) 
1153.0

>  <standard_units>  (742) 
nM

>  <target_pref_name>  (742) 
Androgen Receptor

>  <target_chembl_id>  (742) 
CHEMBL1871

>  <target_organism>  (742) 
Homo sapiens

>  <pchembl_median>  (742) 
5.24

$$$$
CHEMBL4794197
     RDKit          2D

 32 34  0  0  0  0  0  0  0  0999 V2000
  -13.4458   -7.0976    0.0000 C   0  0  0  0  0  0  0  0  0  0  0  0
  -12.6958   -5.7986    0.0000 C   0  0  0  0  0  0  0  0  0  0  0  0
  -11.9458   -4.4996    0.0000 C   0  0  0  0  0  0  0  0  0  0  0  0
  -12.6958   -3.2005    0.0000 C   0  0  0  0  0  0  0  0  0  0  0  0
  -11.9458   -1.9015    0.0000 C   0  0  0  0  0  0  0  0  0  0  0  0
  -10.4458   -1.9015    0.0000 C   0  0  0  0  0  0  0  0  0  0  0  0
   -9.6958   -0.6024    0.0000 C   0  0  0  0  0  0  0  0  0  0  0  0
  -10.3059    0.7679    0.0000 C   0  0  0  0  0  0  0  0  0  0  0  0
   -9.1911    1.7716    0.0000 N   0  0  0  0  0  0  0  0  0  0  0  0
   -7.8921    1.0216    0.0000 N   0  0  0  0  0  0  0  0  0  0  0  0
   -6.5218    1.6317    0.0000 C   0  0  0  0  0  0  0  0  0  0  0  0
   -6.3650    3.1235    0.0000 C   0  0  0  0  0  0  0  0  0  0  0  0
   -6.2082    4.6152    0.0000 C   0  0  0  0  0  0  0  0  0  0  0  0
   -7.8568    3.2803    0.0000 O   0  0  0  0  0  0  0  0  0  0  0  0
   -4.8732    2.9667    0.0000 C   0  0  0  0  0  0  0  0  0  0  0  0
   -4.2631    1.5963    0.0000 O   0  0  0  0  0  0  0  0  0  0  0  0
   -3.9915    4.1802    0.0000 N   0  0  0  0  0  0  0  0  0  0  0  0
   -2.4998    4.0234    0.0000 C   0  0  0  0  0  0  0  0  0  0  0  0
   -1.8896    2.6531    0.0000 C   0  0  0  0  0  0  0  0  0  0  0  0
   -0.3979    2.4963    0.0000 C   0  0  0  0  0  0  0  0  0  0  0  0
    0.4838    3.7098    0.0000 C   0  0  0  0  0  0  0  0  0  0  0  0
    1.9756    3.5530    0.0000 C   0  0  0  0  0  0  0  0  0  0  0  0
    3.4674    3.3962    0.0000 N   0  0  0  0  0  0  0  0  0  0  0  0
   -0.1263    5.0801    0.0000 C   0  0  0  0  0  0  0  0  0  0  0  0
    0.7554    6.2937    0.0000 C   0  0  0  0  0  0  0  0  0  0  0  0
    1.6371    7.5072    0.0000 F   0  0  0  0  0  0  0  0  0  0  0  0
   -0.4581    7.1753    0.0000 F   0  0  0  0  0  0  0  0  0  0  0  0
    1.9689    5.4120    0.0000 F   0  0  0  0  0  0  0  0  0  0  0  0
   -1.6181    5.2369    0.0000 C   0  0  0  0  0  0  0  0  0  0  0  0
   -8.2040   -0.4456    0.0000 C   0  0  0  0  0  0  0  0  0  0  0  0
   -9.6958   -3.2005    0.0000 C   0  0  0  0  0  0  0  0  0  0  0  0
  -10.4458   -4.4996    0.0000 C   0  0  0  0  0  0  0  0  0  0  0  0
  1  2  3  0
  2  3  1  0
  3  4  2  0
  4  5  1  0
  5  6  2  0
  6  7  1  0
  7  8  1  0
  8  9  2  0
  9 10  1  0
 10 11  1  0
 11 12  1  0
 12 13  1  1
 12 14  1  0
 12 15  1  0
 15 16  2  0
 15 17  1  0
 17 18  1  0
 18 19  2  0
 19 20  1  0
 20 21  2  0
 21 22  1  0
 22 23  3  0
 21 24  1  0
 24 25  1  0
 25 26  1  0
 25 27  1  0
 25 28  1  0
 24 29  2  0
 10 30  1  0
  6 31  1  0
 31 32  2  0
 32  3  1  0
 30  7  2  0
 29 18  1  0
M  END
>  <assay_chembl_id>  (743) 
CHEMBL4676574

>  <assay_description>  (743) 
Antagonist activity at recombinant human AR expressed in HEK293 cells assessed as inhibition of R1881-induced transcriptional activity measured after 24 hrs by dual luciferase reporter gene assay

>  <parent_molecule_chembl_id>  (743) 
CHEMBL4794197

>  <canonical_smiles>  (743) 
C#Cc1ccc(-c2cnn(C[C@](C)(O)C(=O)Nc3ccc(C#N)c(C(F)(F)F)c3)c2)cc1

>  <standard_type>  (743) 
IC50

>  <standard_relation>  (743) 
=

>  <standard_value>  (743) 
276.0

>  <standard_units>  (743) 
nM

>  <target_pref_name>  (743) 
Androgen Receptor

>  <target_chembl_id>  (743) 
CHEMBL1871

>  <target_organism>  (743) 
Homo sapiens

>  <pchembl_median>  (743) 
5.26

$$$$
CHEMBL4793442
     RDKit          2D

 31 33  0  0  0  0  0  0  0  0999 V2000
    4.9876   -7.8158    0.0000 C   0  0  0  0  0  0  0  0  0  0  0  0
    4.8308   -6.3240    0.0000 C   0  0  0  0  0  0  0  0  0  0  0  0
    6.3225   -6.1672    0.0000 O   0  0  0  0  0  0  0  0  0  0  0  0
    4.6740   -4.8322    0.0000 C   0  0  0  0  0  0  0  0  0  0  0  0
    5.8875   -3.9505    0.0000 N   0  0  0  0  0  0  0  0  0  0  0  0
    7.3141   -4.4140    0.0000 C   0  0  0  0  0  0  0  0  0  0  0  0
    8.1958   -3.2005    0.0000 C   0  0  0  0  0  0  0  0  0  0  0  0
    7.3141   -1.9870    0.0000 C   0  0  0  0  0  0  0  0  0  0  0  0
    7.7776   -0.5604    0.0000 C   0  0  0  0  0  0  0  0  0  0  0  0
    6.7739    0.5543    0.0000 C   0  0  0  0  0  0  0  0  0  0  0  0
    7.2374    1.9809    0.0000 C   0  0  0  0  0  0  0  0  0  0  0  0
    8.7047    2.2928    0.0000 C   0  0  0  0  0  0  0  0  0  0  0  0
    9.1682    3.7193    0.0000 F   0  0  0  0  0  0  0  0  0  0  0  0
    9.7084    1.1780    0.0000 C   0  0  0  0  0  0  0  0  0  0  0  0
    9.2448   -0.2485    0.0000 C   0  0  0  0  0  0  0  0  0  0  0  0
    5.8875   -2.4505    0.0000 N   0  0  0  0  0  0  0  0  0  0  0  0
    3.3390   -6.4808    0.0000 C   0  0  0  0  0  0  0  0  0  0  0  0
    2.4573   -5.2672    0.0000 O   0  0  0  0  0  0  0  0  0  0  0  0
    2.7289   -7.8511    0.0000 N   0  0  0  0  0  0  0  0  0  0  0  0
    1.2371   -8.0079    0.0000 C   0  0  0  0  0  0  0  0  0  0  0  0
    0.3554   -6.7944    0.0000 C   0  0  0  0  0  0  0  0  0  0  0  0
   -1.1364   -6.9511    0.0000 C   0  0  0  0  0  0  0  0  0  0  0  0
   -1.7465   -8.3215    0.0000 C   0  0  0  0  0  0  0  0  0  0  0  0
   -3.2383   -8.4783    0.0000 C   0  0  0  0  0  0  0  0  0  0  0  0
   -4.7300   -8.6351    0.0000 N   0  0  0  0  0  0  0  0  0  0  0  0
   -0.8648   -9.5350    0.0000 C   0  0  0  0  0  0  0  0  0  0  0  0
   -1.4749  -10.9053    0.0000 C   0  0  0  0  0  0  0  0  0  0  0  0
   -2.0850  -12.2756    0.0000 F   0  0  0  0  0  0  0  0  0  0  0  0
   -0.1046  -11.5154    0.0000 F   0  0  0  0  0  0  0  0  0  0  0  0
   -2.8452  -10.2952    0.0000 F   0  0  0  0  0  0  0  0  0  0  0  0
    0.6270   -9.3782    0.0000 C   0  0  0  0  0  0  0  0  0  0  0  0
  2  1  1  1
  2  3  1  0
  2  4  1  0
  4  5  1  0
  5  6  1  0
  6  7  2  0
  7  8  1  0
  8  9  1  0
  9 10  2  0
 10 11  1  0
 11 12  2  0
 12 13  1  0
 12 14  1  0
 14 15  2  0
  8 16  2  0
  2 17  1  0
 17 18  2  0
 17 19  1  0
 19 20  1  0
 20 21  2  0
 21 22  1  0
 22 23  2  0
 23 24  1  0
 24 25  3  0
 23 26  1  0
 26 27  1  0
 27 28  1  0
 27 29  1  0
 27 30  1  0
 26 31  2  0
 16  5  1  0
 31 20  1  0
 15  9  1  0
M  END
>  <assay_chembl_id>  (744) 
CHEMBL4676574

>  <assay_description>  (744) 
Antagonist activity at recombinant human AR expressed in HEK293 cells assessed as inhibition of R1881-induced transcriptional activity measured after 24 hrs by dual luciferase reporter gene assay

>  <parent_molecule_chembl_id>  (744) 
CHEMBL4793442

>  <canonical_smiles>  (744) 
C[C@](O)(Cn1ccc(-c2ccc(F)cc2)n1)C(=O)Nc1ccc(C#N)c(C(F)(F)F)c1

>  <standard_type>  (744) 
IC50

>  <standard_relation>  (744) 
=

>  <standard_value>  (744) 
1069.0

>  <standard_units>  (744) 
nM

>  <target_pref_name>  (744) 
Androgen Receptor

>  <target_chembl_id>  (744) 
CHEMBL1871

>  <target_organism>  (744) 
Homo sapiens

>  <pchembl_median>  (744) 
5.6

$$$$
CHEMBL4746814
     RDKit          2D

 31 33  0  0  0  0  0  0  0  0999 V2000
   -0.8928   -7.6841    0.0000 C   0  0  0  0  0  0  0  0  0  0  0  0
    0.4775   -7.0740    0.0000 C   0  0  0  0  0  0  0  0  0  0  0  0
    1.0876   -8.4443    0.0000 O   0  0  0  0  0  0  0  0  0  0  0  0
    1.8478   -6.4639    0.0000 C   0  0  0  0  0  0  0  0  0  0  0  0
    3.0613   -7.3456    0.0000 N   0  0  0  0  0  0  0  0  0  0  0  0
    3.0613   -8.8456    0.0000 C   0  0  0  0  0  0  0  0  0  0  0  0
    4.4879   -9.3091    0.0000 C   0  0  0  0  0  0  0  0  0  0  0  0
    4.9515  -10.7357    0.0000 C   0  0  0  0  0  0  0  0  0  0  0  0
    6.4187  -11.0475    0.0000 C   0  0  0  0  0  0  0  0  0  0  0  0
    6.8822  -12.4741    0.0000 C   0  0  0  0  0  0  0  0  0  0  0  0
    5.8785  -13.5888    0.0000 C   0  0  0  0  0  0  0  0  0  0  0  0
    6.3420  -15.0154    0.0000 F   0  0  0  0  0  0  0  0  0  0  0  0
    4.4113  -13.2770    0.0000 C   0  0  0  0  0  0  0  0  0  0  0  0
    3.9478  -11.8504    0.0000 C   0  0  0  0  0  0  0  0  0  0  0  0
    5.3696   -8.0956    0.0000 C   0  0  0  0  0  0  0  0  0  0  0  0
    4.4879   -6.8820    0.0000 N   0  0  0  0  0  0  0  0  0  0  0  0
   -0.1326   -5.7037    0.0000 C   0  0  0  0  0  0  0  0  0  0  0  0
    0.7491   -4.4901    0.0000 O   0  0  0  0  0  0  0  0  0  0  0  0
   -1.6244   -5.5469    0.0000 N   0  0  0  0  0  0  0  0  0  0  0  0
   -2.2345   -4.1765    0.0000 C   0  0  0  0  0  0  0  0  0  0  0  0
   -1.3528   -2.9630    0.0000 C   0  0  0  0  0  0  0  0  0  0  0  0
   -1.9629   -1.5927    0.0000 C   0  0  0  0  0  0  0  0  0  0  0  0
   -3.4547   -1.4359    0.0000 C   0  0  0  0  0  0  0  0  0  0  0  0
   -4.0648   -0.0656    0.0000 C   0  0  0  0  0  0  0  0  0  0  0  0
   -4.6749    1.3047    0.0000 N   0  0  0  0  0  0  0  0  0  0  0  0
   -4.3364   -2.6494    0.0000 C   0  0  0  0  0  0  0  0  0  0  0  0
   -5.8282   -2.4926    0.0000 C   0  0  0  0  0  0  0  0  0  0  0  0
   -7.3199   -2.3359    0.0000 F   0  0  0  0  0  0  0  0  0  0  0  0
   -5.9850   -3.9844    0.0000 F   0  0  0  0  0  0  0  0  0  0  0  0
   -5.6714   -1.0009    0.0000 F   0  0  0  0  0  0  0  0  0  0  0  0
   -3.7263   -4.0198    0.0000 C   0  0  0  0  0  0  0  0  0  0  0  0
  2  1  1  1
  2  3  1  0
  2  4  1  0
  4  5  1  0
  5  6  1  0
  6  7  2  0
  7  8  1  0
  8  9  2  0
  9 10  1  0
 10 11  2  0
 11 12  1  0
 11 13  1  0
 13 14  2  0
  7 15  1  0
 15 16  2  0
  2 17  1  0
 17 18  2  0
 17 19  1  0
 19 20  1  0
 20 21  2  0
 21 22  1  0
 22 23  2  0
 23 24  1  0
 24 25  3  0
 23 26  1  0
 26 27  1  0
 27 28  1  0
 27 29  1  0
 27 30  1  0
 26 31  2  0
 16  5  1  0
 31 20  1  0
 14  8  1  0
M  END
>  <assay_chembl_id>  (745) 
CHEMBL4676574

>  <assay_description>  (745) 
Antagonist activity at recombinant human AR expressed in HEK293 cells assessed as inhibition of R1881-induced transcriptional activity measured after 24 hrs by dual luciferase reporter gene assay

>  <parent_molecule_chembl_id>  (745) 
CHEMBL4746814

>  <canonical_smiles>  (745) 
C[C@](O)(Cn1cc(-c2ccc(F)cc2)cn1)C(=O)Nc1ccc(C#N)c(C(F)(F)F)c1

>  <standard_type>  (745) 
IC50

>  <standard_relation>  (745) 
=

>  <standard_value>  (745) 
969.0

>  <standard_units>  (745) 
nM

>  <target_pref_name>  (745) 
Androgen Receptor

>  <target_chembl_id>  (745) 
CHEMBL1871

>  <target_organism>  (745) 
Homo sapiens

>  <pchembl_median>  (745) 
5.33

$$$$
CHEMBL4778019
     RDKit          2D

 30 32  0  0  0  0  0  0  0  0999 V2000
    4.9876   -7.8158    0.0000 C   0  0  0  0  0  0  0  0  0  0  0  0
    4.8308   -6.3240    0.0000 C   0  0  0  0  0  0  0  0  0  0  0  0
    6.3225   -6.1672    0.0000 O   0  0  0  0  0  0  0  0  0  0  0  0
    4.6740   -4.8322    0.0000 C   0  0  0  0  0  0  0  0  0  0  0  0
    5.8875   -3.9505    0.0000 N   0  0  0  0  0  0  0  0  0  0  0  0
    7.3141   -4.4140    0.0000 C   0  0  0  0  0  0  0  0  0  0  0  0
    8.1958   -3.2005    0.0000 C   0  0  0  0  0  0  0  0  0  0  0  0
    7.3141   -1.9870    0.0000 C   0  0  0  0  0  0  0  0  0  0  0  0
    7.7776   -0.5604    0.0000 C   0  0  0  0  0  0  0  0  0  0  0  0
    6.7739    0.5543    0.0000 C   0  0  0  0  0  0  0  0  0  0  0  0
    7.2374    1.9809    0.0000 C   0  0  0  0  0  0  0  0  0  0  0  0
    8.7047    2.2928    0.0000 C   0  0  0  0  0  0  0  0  0  0  0  0
    9.7084    1.1780    0.0000 C   0  0  0  0  0  0  0  0  0  0  0  0
    9.2448   -0.2485    0.0000 C   0  0  0  0  0  0  0  0  0  0  0  0
    5.8875   -2.4505    0.0000 N   0  0  0  0  0  0  0  0  0  0  0  0
    3.3390   -6.4808    0.0000 C   0  0  0  0  0  0  0  0  0  0  0  0
    2.4573   -5.2672    0.0000 O   0  0  0  0  0  0  0  0  0  0  0  0
    2.7289   -7.8511    0.0000 N   0  0  0  0  0  0  0  0  0  0  0  0
    1.2371   -8.0079    0.0000 C   0  0  0  0  0  0  0  0  0  0  0  0
    0.3554   -6.7944    0.0000 C   0  0  0  0  0  0  0  0  0  0  0  0
   -1.1364   -6.9511    0.0000 C   0  0  0  0  0  0  0  0  0  0  0  0
   -1.7465   -8.3215    0.0000 C   0  0  0  0  0  0  0  0  0  0  0  0
   -3.2383   -8.4783    0.0000 C   0  0  0  0  0  0  0  0  0  0  0  0
   -4.7300   -8.6351    0.0000 N   0  0  0  0  0  0  0  0  0  0  0  0
   -0.8648   -9.5350    0.0000 C   0  0  0  0  0  0  0  0  0  0  0  0
   -1.4749  -10.9053    0.0000 C   0  0  0  0  0  0  0  0  0  0  0  0
   -2.0850  -12.2756    0.0000 F   0  0  0  0  0  0  0  0  0  0  0  0
   -0.1046  -11.5154    0.0000 F   0  0  0  0  0  0  0  0  0  0  0  0
   -2.8452  -10.2952    0.0000 F   0  0  0  0  0  0  0  0  0  0  0  0
    0.6270   -9.3782    0.0000 C   0  0  0  0  0  0  0  0  0  0  0  0
  2  1  1  1
  2  3  1  0
  2  4  1  0
  4  5  1  0
  5  6  1  0
  6  7  2  0
  7  8  1  0
  8  9  1  0
  9 10  2  0
 10 11  1  0
 11 12  2  0
 12 13  1  0
 13 14  2  0
  8 15  2  0
  2 16  1  0
 16 17  2  0
 16 18  1  0
 18 19  1  0
 19 20  2  0
 20 21  1  0
 21 22  2  0
 22 23  1  0
 23 24  3  0
 22 25  1  0
 25 26  1  0
 26 27  1  0
 26 28  1  0
 26 29  1  0
 25 30  2  0
 15  5  1  0
 30 19  1  0
 14  9  1  0
M  END
>  <assay_chembl_id>  (746) 
CHEMBL4676574

>  <assay_description>  (746) 
Antagonist activity at recombinant human AR expressed in HEK293 cells assessed as inhibition of R1881-induced transcriptional activity measured after 24 hrs by dual luciferase reporter gene assay

>  <parent_molecule_chembl_id>  (746) 
CHEMBL4778019

>  <canonical_smiles>  (746) 
C[C@](O)(Cn1ccc(-c2ccccc2)n1)C(=O)Nc1ccc(C#N)c(C(F)(F)F)c1

>  <standard_type>  (746) 
IC50

>  <standard_relation>  (746) 
=

>  <standard_value>  (746) 
4770.0

>  <standard_units>  (746) 
nM

>  <target_pref_name>  (746) 
Androgen Receptor

>  <target_chembl_id>  (746) 
CHEMBL1871

>  <target_organism>  (746) 
Homo sapiens

>  <pchembl_median>  (746) 
5.43

$$$$
CHEMBL4758685
     RDKit          2D

 30 32  0  0  0  0  0  0  0  0999 V2000
   -0.8928   -7.6841    0.0000 C   0  0  0  0  0  0  0  0  0  0  0  0
    0.4775   -7.0740    0.0000 C   0  0  0  0  0  0  0  0  0  0  0  0
    1.0876   -8.4443    0.0000 O   0  0  0  0  0  0  0  0  0  0  0  0
    1.8478   -6.4639    0.0000 C   0  0  0  0  0  0  0  0  0  0  0  0
    3.0613   -7.3456    0.0000 N   0  0  0  0  0  0  0  0  0  0  0  0
    3.0613   -8.8456    0.0000 C   0  0  0  0  0  0  0  0  0  0  0  0
    4.4879   -9.3091    0.0000 C   0  0  0  0  0  0  0  0  0  0  0  0
    4.9515  -10.7357    0.0000 C   0  0  0  0  0  0  0  0  0  0  0  0
    6.4187  -11.0475    0.0000 C   0  0  0  0  0  0  0  0  0  0  0  0
    6.8822  -12.4741    0.0000 C   0  0  0  0  0  0  0  0  0  0  0  0
    5.8785  -13.5888    0.0000 C   0  0  0  0  0  0  0  0  0  0  0  0
    4.4113  -13.2770    0.0000 C   0  0  0  0  0  0  0  0  0  0  0  0
    3.9478  -11.8504    0.0000 C   0  0  0  0  0  0  0  0  0  0  0  0
    5.3696   -8.0956    0.0000 C   0  0  0  0  0  0  0  0  0  0  0  0
    4.4879   -6.8820    0.0000 N   0  0  0  0  0  0  0  0  0  0  0  0
   -0.1326   -5.7037    0.0000 C   0  0  0  0  0  0  0  0  0  0  0  0
    0.7491   -4.4901    0.0000 O   0  0  0  0  0  0  0  0  0  0  0  0
   -1.6244   -5.5469    0.0000 N   0  0  0  0  0  0  0  0  0  0  0  0
   -2.2345   -4.1765    0.0000 C   0  0  0  0  0  0  0  0  0  0  0  0
   -1.3528   -2.9630    0.0000 C   0  0  0  0  0  0  0  0  0  0  0  0
   -1.9629   -1.5927    0.0000 C   0  0  0  0  0  0  0  0  0  0  0  0
   -3.4547   -1.4359    0.0000 C   0  0  0  0  0  0  0  0  0  0  0  0
   -4.0648   -0.0656    0.0000 C   0  0  0  0  0  0  0  0  0  0  0  0
   -4.6749    1.3047    0.0000 N   0  0  0  0  0  0  0  0  0  0  0  0
   -4.3364   -2.6494    0.0000 C   0  0  0  0  0  0  0  0  0  0  0  0
   -5.8282   -2.4926    0.0000 C   0  0  0  0  0  0  0  0  0  0  0  0
   -7.3199   -2.3359    0.0000 F   0  0  0  0  0  0  0  0  0  0  0  0
   -5.9850   -3.9844    0.0000 F   0  0  0  0  0  0  0  0  0  0  0  0
   -5.6714   -1.0009    0.0000 F   0  0  0  0  0  0  0  0  0  0  0  0
   -3.7263   -4.0198    0.0000 C   0  0  0  0  0  0  0  0  0  0  0  0
  2  1  1  1
  2  3  1  0
  2  4  1  0
  4  5  1  0
  5  6  1  0
  6  7  2  0
  7  8  1  0
  8  9  2  0
  9 10  1  0
 10 11  2  0
 11 12  1  0
 12 13  2  0
  7 14  1  0
 14 15  2  0
  2 16  1  0
 16 17  2  0
 16 18  1  0
 18 19  1  0
 19 20  2  0
 20 21  1  0
 21 22  2  0
 22 23  1  0
 23 24  3  0
 22 25  1  0
 25 26  1  0
 26 27  1  0
 26 28  1  0
 26 29  1  0
 25 30  2  0
 15  5  1  0
 30 19  1  0
 13  8  1  0
M  END
>  <assay_chembl_id>  (747) 
CHEMBL4676574

>  <assay_description>  (747) 
Antagonist activity at recombinant human AR expressed in HEK293 cells assessed as inhibition of R1881-induced transcriptional activity measured after 24 hrs by dual luciferase reporter gene assay

>  <parent_molecule_chembl_id>  (747) 
CHEMBL4758685

>  <canonical_smiles>  (747) 
C[C@](O)(Cn1cc(-c2ccccc2)cn1)C(=O)Nc1ccc(C#N)c(C(F)(F)F)c1

>  <standard_type>  (747) 
IC50

>  <standard_relation>  (747) 
=

>  <standard_value>  (747) 
1152.0

>  <standard_units>  (747) 
nM

>  <target_pref_name>  (747) 
Androgen Receptor

>  <target_chembl_id>  (747) 
CHEMBL1871

>  <target_organism>  (747) 
Homo sapiens

>  <pchembl_median>  (747) 
5.31

$$$$
CHEMBL4747667
     RDKit          2D

 25 26  0  0  0  0  0  0  0  0999 V2000
   -1.4307  -10.9679    0.0000 C   0  0  0  0  0  0  0  0  0  0  0  0
   -0.5490   -9.7544    0.0000 C   0  0  0  0  0  0  0  0  0  0  0  0
    0.9510   -9.7544    0.0000 C   0  0  0  0  0  0  0  0  0  0  0  0
    1.4145   -8.3278    0.0000 N   0  0  0  0  0  0  0  0  0  0  0  0
    0.2010   -7.4462    0.0000 N   0  0  0  0  0  0  0  0  0  0  0  0
    0.2010   -5.9462    0.0000 C   0  0  0  0  0  0  0  0  0  0  0  0
    1.5000   -5.1962    0.0000 C   0  0  0  0  0  0  0  0  0  0  0  0
    2.7990   -4.4462    0.0000 C   0  0  0  0  0  0  0  0  0  0  0  0
    2.2500   -6.4952    0.0000 O   0  0  0  0  0  0  0  0  0  0  0  0
    0.7500   -3.8971    0.0000 C   0  0  0  0  0  0  0  0  0  0  0  0
   -0.7500   -3.8971    0.0000 O   0  0  0  0  0  0  0  0  0  0  0  0
    1.5000   -2.5981    0.0000 N   0  0  0  0  0  0  0  0  0  0  0  0
    0.7500   -1.2990    0.0000 C   0  0  0  0  0  0  0  0  0  0  0  0
    1.5000    0.0000    0.0000 C   0  0  0  0  0  0  0  0  0  0  0  0
    0.7500    1.2990    0.0000 C   0  0  0  0  0  0  0  0  0  0  0  0
   -0.7500    1.2990    0.0000 C   0  0  0  0  0  0  0  0  0  0  0  0
   -1.5000    2.5981    0.0000 C   0  0  0  0  0  0  0  0  0  0  0  0
   -2.2500    3.8971    0.0000 N   0  0  0  0  0  0  0  0  0  0  0  0
   -1.5000    0.0000    0.0000 C   0  0  0  0  0  0  0  0  0  0  0  0
   -3.0000    0.0000    0.0000 C   0  0  0  0  0  0  0  0  0  0  0  0
   -4.5000    0.0000    0.0000 F   0  0  0  0  0  0  0  0  0  0  0  0
   -3.0000   -1.5000    0.0000 F   0  0  0  0  0  0  0  0  0  0  0  0
   -3.0000    1.5000    0.0000 F   0  0  0  0  0  0  0  0  0  0  0  0
   -0.7500   -1.2990    0.0000 C   0  0  0  0  0  0  0  0  0  0  0  0
   -1.0126   -8.3278    0.0000 C   0  0  0  0  0  0  0  0  0  0  0  0
  1  2  1  0
  2  3  1  0
  3  4  2  0
  4  5  1  0
  5  6  1  0
  6  7  1  0
  7  8  1  6
  7  9  1  0
  7 10  1  0
 10 11  2  0
 10 12  1  0
 12 13  1  0
 13 14  2  0
 14 15  1  0
 15 16  2  0
 16 17  1  0
 17 18  3  0
 16 19  1  0
 19 20  1  0
 20 21  1  0
 20 22  1  0
 20 23  1  0
 19 24  2  0
  5 25  1  0
 25  2  2  0
 24 13  1  0
M  END
>  <assay_chembl_id>  (748) 
CHEMBL4676574

>  <assay_description>  (748) 
Antagonist activity at recombinant human AR expressed in HEK293 cells assessed as inhibition of R1881-induced transcriptional activity measured after 24 hrs by dual luciferase reporter gene assay

>  <parent_molecule_chembl_id>  (748) 
CHEMBL4747667

>  <canonical_smiles>  (748) 
Cc1cnn(C[C@](C)(O)C(=O)Nc2ccc(C#N)c(C(F)(F)F)c2)c1

>  <standard_type>  (748) 
IC50

>  <standard_relation>  (748) 
=

>  <standard_value>  (748) 
8087.0

>  <standard_units>  (748) 
nM

>  <target_pref_name>  (748) 
Androgen Receptor

>  <target_chembl_id>  (748) 
CHEMBL1871

>  <target_organism>  (748) 
Homo sapiens

>  <pchembl_median>  (748) 
6.07

$$$$
CHEMBL4753877
     RDKit          2D

 27 28  0  0  0  0  0  0  0  0999 V2000
    2.7990   -4.4462    0.0000 C   0  0  0  0  0  0  0  0  0  0  0  0
    1.5000   -5.1962    0.0000 C   0  0  0  0  0  0  0  0  0  0  0  0
    2.2500   -6.4952    0.0000 O   0  0  0  0  0  0  0  0  0  0  0  0
    0.2010   -5.9462    0.0000 C   0  0  0  0  0  0  0  0  0  0  0  0
    0.2010   -7.4462    0.0000 N   0  0  0  0  0  0  0  0  0  0  0  0
    1.4145   -8.3278    0.0000 C   0  0  0  0  0  0  0  0  0  0  0  0
    0.9510   -9.7544    0.0000 C   0  0  0  0  0  0  0  0  0  0  0  0
    1.8326  -10.9679    0.0000 N   0  0  0  0  0  4  0  0  0  0  0  0
    3.3244  -10.8111    0.0000 O   0  0  0  0  0  0  0  0  0  0  0  0
    1.2225  -12.3383    0.0000 O   0  0  0  0  0  1  0  0  0  0  0  0
   -0.5490   -9.7544    0.0000 C   0  0  0  0  0  0  0  0  0  0  0  0
   -1.0126   -8.3278    0.0000 N   0  0  0  0  0  0  0  0  0  0  0  0
    0.7500   -3.8971    0.0000 C   0  0  0  0  0  0  0  0  0  0  0  0
   -0.7500   -3.8971    0.0000 O   0  0  0  0  0  0  0  0  0  0  0  0
    1.5000   -2.5981    0.0000 N   0  0  0  0  0  0  0  0  0  0  0  0
    0.7500   -1.2990    0.0000 C   0  0  0  0  0  0  0  0  0  0  0  0
    1.5000    0.0000    0.0000 C   0  0  0  0  0  0  0  0  0  0  0  0
    0.7500    1.2990    0.0000 C   0  0  0  0  0  0  0  0  0  0  0  0
   -0.7500    1.2990    0.0000 C   0  0  0  0  0  0  0  0  0  0  0  0
   -1.5000    2.5981    0.0000 C   0  0  0  0  0  0  0  0  0  0  0  0
   -2.2500    3.8971    0.0000 N   0  0  0  0  0  0  0  0  0  0  0  0
   -1.5000    0.0000    0.0000 C   0  0  0  0  0  0  0  0  0  0  0  0
   -3.0000    0.0000    0.0000 C   0  0  0  0  0  0  0  0  0  0  0  0
   -4.5000    0.0000    0.0000 F   0  0  0  0  0  0  0  0  0  0  0  0
   -3.0000   -1.5000    0.0000 F   0  0  0  0  0  0  0  0  0  0  0  0
   -3.0000    1.5000    0.0000 F   0  0  0  0  0  0  0  0  0  0  0  0
   -0.7500   -1.2990    0.0000 C   0  0  0  0  0  0  0  0  0  0  0  0
  2  1  1  6
  2  3  1  0
  2  4  1  0
  4  5  1  0
  5  6  1  0
  6  7  2  0
  7  8  1  0
  8  9  2  0
  8 10  1  0
  7 11  1  0
 11 12  2  0
  2 13  1  0
 13 14  2  0
 13 15  1  0
 15 16  1  0
 16 17  2  0
 17 18  1  0
 18 19  2  0
 19 20  1  0
 20 21  3  0
 19 22  1  0
 22 23  1  0
 23 24  1  0
 23 25  1  0
 23 26  1  0
 22 27  2  0
 12  5  1  0
 27 16  1  0
M  CHG  2   8   1  10  -1
M  END
>  <assay_chembl_id>  (749) 
CHEMBL4676574

>  <assay_description>  (749) 
Antagonist activity at recombinant human AR expressed in HEK293 cells assessed as inhibition of R1881-induced transcriptional activity measured after 24 hrs by dual luciferase reporter gene assay

>  <parent_molecule_chembl_id>  (749) 
CHEMBL4753877

>  <canonical_smiles>  (749) 
C[C@](O)(Cn1cc([N+](=O)[O-])cn1)C(=O)Nc1ccc(C#N)c(C(F)(F)F)c1

>  <standard_type>  (749) 
IC50

>  <standard_relation>  (749) 
=

>  <standard_value>  (749) 
36.0

>  <standard_units>  (749) 
nM

>  <target_pref_name>  (749) 
Androgen Receptor

>  <target_chembl_id>  (749) 
CHEMBL1871

>  <target_organism>  (749) 
Homo sapiens

>  <pchembl_median>  (749) 
5.56

$$$$
CHEMBL4741569
     RDKit          2D

 28 29  0  0  0  0  0  0  0  0999 V2000
    2.7990   -4.4462    0.0000 C   0  0  0  0  0  0  0  0  0  0  0  0
    1.5000   -5.1962    0.0000 C   0  0  0  0  0  0  0  0  0  0  0  0
    2.2500   -6.4952    0.0000 O   0  0  0  0  0  0  0  0  0  0  0  0
    0.2010   -5.9462    0.0000 C   0  0  0  0  0  0  0  0  0  0  0  0
    0.2010   -7.4462    0.0000 N   0  0  0  0  0  0  0  0  0  0  0  0
    1.4145   -8.3278    0.0000 C   0  0  0  0  0  0  0  0  0  0  0  0
    0.9510   -9.7544    0.0000 C   0  0  0  0  0  0  0  0  0  0  0  0
   -0.5490   -9.7544    0.0000 C   0  0  0  0  0  0  0  0  0  0  0  0
   -1.4307  -10.9679    0.0000 C   0  0  0  0  0  0  0  0  0  0  0  0
   -2.3124  -12.1815    0.0000 F   0  0  0  0  0  0  0  0  0  0  0  0
   -2.6442  -10.0863    0.0000 F   0  0  0  0  0  0  0  0  0  0  0  0
   -0.2172  -11.8496    0.0000 F   0  0  0  0  0  0  0  0  0  0  0  0
   -1.0126   -8.3278    0.0000 N   0  0  0  0  0  0  0  0  0  0  0  0
    0.7500   -3.8971    0.0000 C   0  0  0  0  0  0  0  0  0  0  0  0
   -0.7500   -3.8971    0.0000 O   0  0  0  0  0  0  0  0  0  0  0  0
    1.5000   -2.5981    0.0000 N   0  0  0  0  0  0  0  0  0  0  0  0
    0.7500   -1.2990    0.0000 C   0  0  0  0  0  0  0  0  0  0  0  0
    1.5000    0.0000    0.0000 C   0  0  0  0  0  0  0  0  0  0  0  0
    0.7500    1.2990    0.0000 C   0  0  0  0  0  0  0  0  0  0  0  0
   -0.7500    1.2990    0.0000 C   0  0  0  0  0  0  0  0  0  0  0  0
   -1.5000    2.5981    0.0000 C   0  0  0  0  0  0  0  0  0  0  0  0
   -2.2500    3.8971    0.0000 N   0  0  0  0  0  0  0  0  0  0  0  0
   -1.5000    0.0000    0.0000 C   0  0  0  0  0  0  0  0  0  0  0  0
   -3.0000    0.0000    0.0000 C   0  0  0  0  0  0  0  0  0  0  0  0
   -4.5000    0.0000    0.0000 F   0  0  0  0  0  0  0  0  0  0  0  0
   -3.0000   -1.5000    0.0000 F   0  0  0  0  0  0  0  0  0  0  0  0
   -3.0000    1.5000    0.0000 F   0  0  0  0  0  0  0  0  0  0  0  0
   -0.7500   -1.2990    0.0000 C   0  0  0  0  0  0  0  0  0  0  0  0
  2  1  1  6
  2  3  1  0
  2  4  1  0
  4  5  1  0
  5  6  1  0
  6  7  2  0
  7  8  1  0
  8  9  1  0
  9 10  1  0
  9 11  1  0
  9 12  1  0
  8 13  2  0
  2 14  1  0
 14 15  2  0
 14 16  1  0
 16 17  1  0
 17 18  2  0
 18 19  1  0
 19 20  2  0
 20 21  1  0
 21 22  3  0
 20 23  1  0
 23 24  1  0
 24 25  1  0
 24 26  1  0
 24 27  1  0
 23 28  2  0
 13  5  1  0
 28 17  1  0
M  END
>  <assay_chembl_id>  (750) 
CHEMBL4676574

>  <assay_description>  (750) 
Antagonist activity at recombinant human AR expressed in HEK293 cells assessed as inhibition of R1881-induced transcriptional activity measured after 24 hrs by dual luciferase reporter gene assay

>  <parent_molecule_chembl_id>  (750) 
CHEMBL4741569

>  <canonical_smiles>  (750) 
C[C@](O)(Cn1ccc(C(F)(F)F)n1)C(=O)Nc1ccc(C#N)c(C(F)(F)F)c1

>  <standard_type>  (750) 
IC50

>  <standard_relation>  (750) 
=

>  <standard_value>  (750) 
205.0

>  <standard_units>  (750) 
nM

>  <target_pref_name>  (750) 
Androgen Receptor

>  <target_chembl_id>  (750) 
CHEMBL1871

>  <target_organism>  (750) 
Homo sapiens

>  <pchembl_median>  (750) 
7.265

$$$$
CHEMBL4751646
     RDKit          2D

 28 29  0  0  0  0  0  0  0  0999 V2000
    2.7990   -4.4462    0.0000 C   0  0  0  0  0  0  0  0  0  0  0  0
    1.5000   -5.1962    0.0000 C   0  0  0  0  0  0  0  0  0  0  0  0
    2.2500   -6.4952    0.0000 O   0  0  0  0  0  0  0  0  0  0  0  0
    0.2010   -5.9462    0.0000 C   0  0  0  0  0  0  0  0  0  0  0  0
    0.2010   -7.4462    0.0000 N   0  0  0  0  0  0  0  0  0  0  0  0
    1.4145   -8.3278    0.0000 C   0  0  0  0  0  0  0  0  0  0  0  0
    0.9510   -9.7544    0.0000 C   0  0  0  0  0  0  0  0  0  0  0  0
    1.8326  -10.9679    0.0000 C   0  0  0  0  0  0  0  0  0  0  0  0
    2.7143  -12.1815    0.0000 F   0  0  0  0  0  0  0  0  0  0  0  0
    0.6191  -11.8496    0.0000 F   0  0  0  0  0  0  0  0  0  0  0  0
    3.0462  -10.0863    0.0000 F   0  0  0  0  0  0  0  0  0  0  0  0
   -0.5490   -9.7544    0.0000 C   0  0  0  0  0  0  0  0  0  0  0  0
   -1.0126   -8.3278    0.0000 N   0  0  0  0  0  0  0  0  0  0  0  0
    0.7500   -3.8971    0.0000 C   0  0  0  0  0  0  0  0  0  0  0  0
   -0.7500   -3.8971    0.0000 O   0  0  0  0  0  0  0  0  0  0  0  0
    1.5000   -2.5981    0.0000 N   0  0  0  0  0  0  0  0  0  0  0  0
    0.7500   -1.2990    0.0000 C   0  0  0  0  0  0  0  0  0  0  0  0
    1.5000    0.0000    0.0000 C   0  0  0  0  0  0  0  0  0  0  0  0
    0.7500    1.2990    0.0000 C   0  0  0  0  0  0  0  0  0  0  0  0
   -0.7500    1.2990    0.0000 C   0  0  0  0  0  0  0  0  0  0  0  0
   -1.5000    2.5981    0.0000 C   0  0  0  0  0  0  0  0  0  0  0  0
   -2.2500    3.8971    0.0000 N   0  0  0  0  0  0  0  0  0  0  0  0
   -1.5000    0.0000    0.0000 C   0  0  0  0  0  0  0  0  0  0  0  0
   -3.0000    0.0000    0.0000 C   0  0  0  0  0  0  0  0  0  0  0  0
   -4.5000    0.0000    0.0000 F   0  0  0  0  0  0  0  0  0  0  0  0
   -3.0000   -1.5000    0.0000 F   0  0  0  0  0  0  0  0  0  0  0  0
   -3.0000    1.5000    0.0000 F   0  0  0  0  0  0  0  0  0  0  0  0
   -0.7500   -1.2990    0.0000 C   0  0  0  0  0  0  0  0  0  0  0  0
  2  1  1  6
  2  3  1  0
  2  4  1  0
  4  5  1  0
  5  6  1  0
  6  7  2  0
  7  8  1  0
  8  9  1  0
  8 10  1  0
  8 11  1  0
  7 12  1  0
 12 13  2  0
  2 14  1  0
 14 15  2  0
 14 16  1  0
 16 17  1  0
 17 18  2  0
 18 19  1  0
 19 20  2  0
 20 21  1  0
 21 22  3  0
 20 23  1  0
 23 24  1  0
 24 25  1  0
 24 26  1  0
 24 27  1  0
 23 28  2  0
 13  5  1  0
 28 17  1  0
M  END
>  <assay_chembl_id>  (751) 
CHEMBL4676574

>  <assay_description>  (751) 
Antagonist activity at recombinant human AR expressed in HEK293 cells assessed as inhibition of R1881-induced transcriptional activity measured after 24 hrs by dual luciferase reporter gene assay

>  <parent_molecule_chembl_id>  (751) 
CHEMBL4751646

>  <canonical_smiles>  (751) 
C[C@](O)(Cn1cc(C(F)(F)F)cn1)C(=O)Nc1ccc(C#N)c(C(F)(F)F)c1

>  <standard_type>  (751) 
IC50

>  <standard_relation>  (751) 
=

>  <standard_value>  (751) 
71.0

>  <standard_units>  (751) 
nM

>  <target_pref_name>  (751) 
Androgen Receptor

>  <target_chembl_id>  (751) 
CHEMBL1871

>  <target_organism>  (751) 
Homo sapiens

>  <pchembl_median>  (751) 
7.24

$$$$
CHEMBL4742694
     RDKit          2D

 27 28  0  0  0  0  0  0  0  0999 V2000
   -2.9225  -10.8111    0.0000 C   0  0  0  0  0  0  0  0  0  0  0  0
   -1.4307  -10.9679    0.0000 C   0  0  0  0  0  0  0  0  0  0  0  0
   -0.8206  -12.3383    0.0000 O   0  0  0  0  0  0  0  0  0  0  0  0
   -0.5490   -9.7544    0.0000 C   0  0  0  0  0  0  0  0  0  0  0  0
    0.9510   -9.7544    0.0000 C   0  0  0  0  0  0  0  0  0  0  0  0
    1.4145   -8.3278    0.0000 N   0  0  0  0  0  0  0  0  0  0  0  0
    0.2010   -7.4462    0.0000 N   0  0  0  0  0  0  0  0  0  0  0  0
    0.2010   -5.9462    0.0000 C   0  0  0  0  0  0  0  0  0  0  0  0
    1.5000   -5.1962    0.0000 C   0  0  0  0  0  0  0  0  0  0  0  0
    2.7990   -4.4462    0.0000 C   0  0  0  0  0  0  0  0  0  0  0  0
    2.2500   -6.4952    0.0000 O   0  0  0  0  0  0  0  0  0  0  0  0
    0.7500   -3.8971    0.0000 C   0  0  0  0  0  0  0  0  0  0  0  0
   -0.7500   -3.8971    0.0000 O   0  0  0  0  0  0  0  0  0  0  0  0
    1.5000   -2.5981    0.0000 N   0  0  0  0  0  0  0  0  0  0  0  0
    0.7500   -1.2990    0.0000 C   0  0  0  0  0  0  0  0  0  0  0  0
    1.5000    0.0000    0.0000 C   0  0  0  0  0  0  0  0  0  0  0  0
    0.7500    1.2990    0.0000 C   0  0  0  0  0  0  0  0  0  0  0  0
   -0.7500    1.2990    0.0000 C   0  0  0  0  0  0  0  0  0  0  0  0
   -1.5000    2.5981    0.0000 C   0  0  0  0  0  0  0  0  0  0  0  0
   -2.2500    3.8971    0.0000 N   0  0  0  0  0  0  0  0  0  0  0  0
   -1.5000    0.0000    0.0000 C   0  0  0  0  0  0  0  0  0  0  0  0
   -3.0000    0.0000    0.0000 C   0  0  0  0  0  0  0  0  0  0  0  0
   -4.5000    0.0000    0.0000 F   0  0  0  0  0  0  0  0  0  0  0  0
   -3.0000   -1.5000    0.0000 F   0  0  0  0  0  0  0  0  0  0  0  0
   -3.0000    1.5000    0.0000 F   0  0  0  0  0  0  0  0  0  0  0  0
   -0.7500   -1.2990    0.0000 C   0  0  0  0  0  0  0  0  0  0  0  0
   -1.0126   -8.3278    0.0000 C   0  0  0  0  0  0  0  0  0  0  0  0
  1  2  1  0
  2  3  2  0
  2  4  1  0
  4  5  1  0
  5  6  2  0
  6  7  1  0
  7  8  1  0
  8  9  1  0
  9 10  1  6
  9 11  1  0
  9 12  1  0
 12 13  2  0
 12 14  1  0
 14 15  1  0
 15 16  2  0
 16 17  1  0
 17 18  2  0
 18 19  1  0
 19 20  3  0
 18 21  1  0
 21 22  1  0
 22 23  1  0
 22 24  1  0
 22 25  1  0
 21 26  2  0
  7 27  1  0
 27  4  2  0
 26 15  1  0
M  END
>  <assay_chembl_id>  (752) 
CHEMBL4676574

>  <assay_description>  (752) 
Antagonist activity at recombinant human AR expressed in HEK293 cells assessed as inhibition of R1881-induced transcriptional activity measured after 24 hrs by dual luciferase reporter gene assay

>  <parent_molecule_chembl_id>  (752) 
CHEMBL4742694

>  <canonical_smiles>  (752) 
CC(=O)c1cnn(C[C@](C)(O)C(=O)Nc2ccc(C#N)c(C(F)(F)F)c2)c1

>  <standard_type>  (752) 
IC50

>  <standard_relation>  (752) 
=

>  <standard_value>  (752) 
758.0

>  <standard_units>  (752) 
nM

>  <target_pref_name>  (752) 
Androgen Receptor

>  <target_chembl_id>  (752) 
CHEMBL1871

>  <target_organism>  (752) 
Homo sapiens

>  <pchembl_median>  (752) 
6.975

$$$$
CHEMBL4798843
     RDKit          2D

 25 26  0  0  0  0  0  0  0  0999 V2000
    2.7990   -4.4462    0.0000 C   0  0  0  0  0  0  0  0  0  0  0  0
    1.5000   -5.1962    0.0000 C   0  0  0  0  0  0  0  0  0  0  0  0
    2.2500   -6.4952    0.0000 O   0  0  0  0  0  0  0  0  0  0  0  0
    0.2010   -5.9462    0.0000 C   0  0  0  0  0  0  0  0  0  0  0  0
    0.2010   -7.4462    0.0000 N   0  0  0  0  0  0  0  0  0  0  0  0
    1.4145   -8.3278    0.0000 C   0  0  0  0  0  0  0  0  0  0  0  0
    0.9510   -9.7544    0.0000 C   0  0  0  0  0  0  0  0  0  0  0  0
    1.8326  -10.9679    0.0000 I   0  0  0  0  0  0  0  0  0  0  0  0
   -0.5490   -9.7544    0.0000 C   0  0  0  0  0  0  0  0  0  0  0  0
   -1.0126   -8.3278    0.0000 N   0  0  0  0  0  0  0  0  0  0  0  0
    0.7500   -3.8971    0.0000 C   0  0  0  0  0  0  0  0  0  0  0  0
   -0.7500   -3.8971    0.0000 O   0  0  0  0  0  0  0  0  0  0  0  0
    1.5000   -2.5981    0.0000 N   0  0  0  0  0  0  0  0  0  0  0  0
    0.7500   -1.2990    0.0000 C   0  0  0  0  0  0  0  0  0  0  0  0
    1.5000    0.0000    0.0000 C   0  0  0  0  0  0  0  0  0  0  0  0
    0.7500    1.2990    0.0000 C   0  0  0  0  0  0  0  0  0  0  0  0
   -0.7500    1.2990    0.0000 C   0  0  0  0  0  0  0  0  0  0  0  0
   -1.5000    2.5981    0.0000 C   0  0  0  0  0  0  0  0  0  0  0  0
   -2.2500    3.8971    0.0000 N   0  0  0  0  0  0  0  0  0  0  0  0
   -1.5000    0.0000    0.0000 C   0  0  0  0  0  0  0  0  0  0  0  0
   -3.0000    0.0000    0.0000 C   0  0  0  0  0  0  0  0  0  0  0  0
   -4.5000    0.0000    0.0000 F   0  0  0  0  0  0  0  0  0  0  0  0
   -3.0000   -1.5000    0.0000 F   0  0  0  0  0  0  0  0  0  0  0  0
   -3.0000    1.5000    0.0000 F   0  0  0  0  0  0  0  0  0  0  0  0
   -0.7500   -1.2990    0.0000 C   0  0  0  0  0  0  0  0  0  0  0  0
  2  1  1  6
  2  3  1  0
  2  4  1  0
  4  5  1  0
  5  6  1  0
  6  7  2  0
  7  8  1  0
  7  9  1  0
  9 10  2  0
  2 11  1  0
 11 12  2  0
 11 13  1  0
 13 14  1  0
 14 15  2  0
 15 16  1  0
 16 17  2  0
 17 18  1  0
 18 19  3  0
 17 20  1  0
 20 21  1  0
 21 22  1  0
 21 23  1  0
 21 24  1  0
 20 25  2  0
 10  5  1  0
 25 14  1  0
M  END
>  <assay_chembl_id>  (753) 
CHEMBL4676574

>  <assay_description>  (753) 
Antagonist activity at recombinant human AR expressed in HEK293 cells assessed as inhibition of R1881-induced transcriptional activity measured after 24 hrs by dual luciferase reporter gene assay

>  <parent_molecule_chembl_id>  (753) 
CHEMBL4798843

>  <canonical_smiles>  (753) 
C[C@](O)(Cn1cc(I)cn1)C(=O)Nc1ccc(C#N)c(C(F)(F)F)c1

>  <standard_type>  (753) 
IC50

>  <standard_relation>  (753) 
=

>  <standard_value>  (753) 
2038.0

>  <standard_units>  (753) 
nM

>  <target_pref_name>  (753) 
Androgen Receptor

>  <target_chembl_id>  (753) 
CHEMBL1871

>  <target_organism>  (753) 
Homo sapiens

>  <pchembl_median>  (753) 
6.65

$$$$
CHEMBL4797334
     RDKit          2D

 25 26  0  0  0  0  0  0  0  0999 V2000
    2.7990   -4.4462    0.0000 C   0  0  0  0  0  0  0  0  0  0  0  0
    1.5000   -5.1962    0.0000 C   0  0  0  0  0  0  0  0  0  0  0  0
    2.2500   -6.4952    0.0000 O   0  0  0  0  0  0  0  0  0  0  0  0
    0.2010   -5.9462    0.0000 C   0  0  0  0  0  0  0  0  0  0  0  0
    0.2010   -7.4462    0.0000 N   0  0  0  0  0  0  0  0  0  0  0  0
    1.4145   -8.3278    0.0000 C   0  0  0  0  0  0  0  0  0  0  0  0
    0.9510   -9.7544    0.0000 C   0  0  0  0  0  0  0  0  0  0  0  0
    1.8326  -10.9679    0.0000 Br  0  0  0  0  0  0  0  0  0  0  0  0
   -0.5490   -9.7544    0.0000 C   0  0  0  0  0  0  0  0  0  0  0  0
   -1.0126   -8.3278    0.0000 N   0  0  0  0  0  0  0  0  0  0  0  0
    0.7500   -3.8971    0.0000 C   0  0  0  0  0  0  0  0  0  0  0  0
   -0.7500   -3.8971    0.0000 O   0  0  0  0  0  0  0  0  0  0  0  0
    1.5000   -2.5981    0.0000 N   0  0  0  0  0  0  0  0  0  0  0  0
    0.7500   -1.2990    0.0000 C   0  0  0  0  0  0  0  0  0  0  0  0
    1.5000    0.0000    0.0000 C   0  0  0  0  0  0  0  0  0  0  0  0
    0.7500    1.2990    0.0000 C   0  0  0  0  0  0  0  0  0  0  0  0
   -0.7500    1.2990    0.0000 C   0  0  0  0  0  0  0  0  0  0  0  0
   -1.5000    2.5981    0.0000 C   0  0  0  0  0  0  0  0  0  0  0  0
   -2.2500    3.8971    0.0000 N   0  0  0  0  0  0  0  0  0  0  0  0
   -1.5000    0.0000    0.0000 C   0  0  0  0  0  0  0  0  0  0  0  0
   -3.0000    0.0000    0.0000 C   0  0  0  0  0  0  0  0  0  0  0  0
   -4.5000    0.0000    0.0000 F   0  0  0  0  0  0  0  0  0  0  0  0
   -3.0000   -1.5000    0.0000 F   0  0  0  0  0  0  0  0  0  0  0  0
   -3.0000    1.5000    0.0000 F   0  0  0  0  0  0  0  0  0  0  0  0
   -0.7500   -1.2990    0.0000 C   0  0  0  0  0  0  0  0  0  0  0  0
  2  1  1  6
  2  3  1  0
  2  4  1  0
  4  5  1  0
  5  6  1  0
  6  7  2  0
  7  8  1  0
  7  9  1  0
  9 10  2  0
  2 11  1  0
 11 12  2  0
 11 13  1  0
 13 14  1  0
 14 15  2  0
 15 16  1  0
 16 17  2  0
 17 18  1  0
 18 19  3  0
 17 20  1  0
 20 21  1  0
 21 22  1  0
 21 23  1  0
 21 24  1  0
 20 25  2  0
 10  5  1  0
 25 14  1  0
M  END
>  <assay_chembl_id>  (754) 
CHEMBL4676574

>  <assay_description>  (754) 
Antagonist activity at recombinant human AR expressed in HEK293 cells assessed as inhibition of R1881-induced transcriptional activity measured after 24 hrs by dual luciferase reporter gene assay

>  <parent_molecule_chembl_id>  (754) 
CHEMBL4797334

>  <canonical_smiles>  (754) 
C[C@](O)(Cn1cc(Br)cn1)C(=O)Nc1ccc(C#N)c(C(F)(F)F)c1

>  <standard_type>  (754) 
IC50

>  <standard_relation>  (754) 
=

>  <standard_value>  (754) 
427.0

>  <standard_units>  (754) 
nM

>  <target_pref_name>  (754) 
Androgen Receptor

>  <target_chembl_id>  (754) 
CHEMBL1871

>  <target_organism>  (754) 
Homo sapiens

>  <pchembl_median>  (754) 
7.355

$$$$
CHEMBL4752991
     RDKit          2D

 25 26  0  0  0  0  0  0  0  0999 V2000
    2.7990   -4.4462    0.0000 C   0  0  0  0  0  0  0  0  0  0  0  0
    1.5000   -5.1962    0.0000 C   0  0  0  0  0  0  0  0  0  0  0  0
    2.2500   -6.4952    0.0000 O   0  0  0  0  0  0  0  0  0  0  0  0
    0.2010   -5.9462    0.0000 C   0  0  0  0  0  0  0  0  0  0  0  0
    0.2010   -7.4462    0.0000 N   0  0  0  0  0  0  0  0  0  0  0  0
    1.4145   -8.3278    0.0000 C   0  0  0  0  0  0  0  0  0  0  0  0
    0.9510   -9.7544    0.0000 C   0  0  0  0  0  0  0  0  0  0  0  0
    1.8326  -10.9679    0.0000 Cl  0  0  0  0  0  0  0  0  0  0  0  0
   -0.5490   -9.7544    0.0000 C   0  0  0  0  0  0  0  0  0  0  0  0
   -1.0126   -8.3278    0.0000 N   0  0  0  0  0  0  0  0  0  0  0  0
    0.7500   -3.8971    0.0000 C   0  0  0  0  0  0  0  0  0  0  0  0
   -0.7500   -3.8971    0.0000 O   0  0  0  0  0  0  0  0  0  0  0  0
    1.5000   -2.5981    0.0000 N   0  0  0  0  0  0  0  0  0  0  0  0
    0.7500   -1.2990    0.0000 C   0  0  0  0  0  0  0  0  0  0  0  0
    1.5000    0.0000    0.0000 C   0  0  0  0  0  0  0  0  0  0  0  0
    0.7500    1.2990    0.0000 C   0  0  0  0  0  0  0  0  0  0  0  0
   -0.7500    1.2990    0.0000 C   0  0  0  0  0  0  0  0  0  0  0  0
   -1.5000    2.5981    0.0000 C   0  0  0  0  0  0  0  0  0  0  0  0
   -2.2500    3.8971    0.0000 N   0  0  0  0  0  0  0  0  0  0  0  0
   -1.5000    0.0000    0.0000 C   0  0  0  0  0  0  0  0  0  0  0  0
   -3.0000    0.0000    0.0000 C   0  0  0  0  0  0  0  0  0  0  0  0
   -4.5000    0.0000    0.0000 F   0  0  0  0  0  0  0  0  0  0  0  0
   -3.0000   -1.5000    0.0000 F   0  0  0  0  0  0  0  0  0  0  0  0
   -3.0000    1.5000    0.0000 F   0  0  0  0  0  0  0  0  0  0  0  0
   -0.7500   -1.2990    0.0000 C   0  0  0  0  0  0  0  0  0  0  0  0
  2  1  1  6
  2  3  1  0
  2  4  1  0
  4  5  1  0
  5  6  1  0
  6  7  2  0
  7  8  1  0
  7  9  1  0
  9 10  2  0
  2 11  1  0
 11 12  2  0
 11 13  1  0
 13 14  1  0
 14 15  2  0
 15 16  1  0
 16 17  2  0
 17 18  1  0
 18 19  3  0
 17 20  1  0
 20 21  1  0
 21 22  1  0
 21 23  1  0
 21 24  1  0
 20 25  2  0
 10  5  1  0
 25 14  1  0
M  END
>  <assay_chembl_id>  (755) 
CHEMBL4676574

>  <assay_description>  (755) 
Antagonist activity at recombinant human AR expressed in HEK293 cells assessed as inhibition of R1881-induced transcriptional activity measured after 24 hrs by dual luciferase reporter gene assay

>  <parent_molecule_chembl_id>  (755) 
CHEMBL4752991

>  <canonical_smiles>  (755) 
C[C@](O)(Cn1cc(Cl)cn1)C(=O)Nc1ccc(C#N)c(C(F)(F)F)c1

>  <standard_type>  (755) 
IC50

>  <standard_relation>  (755) 
=

>  <standard_value>  (755) 
136.0

>  <standard_units>  (755) 
nM

>  <target_pref_name>  (755) 
Androgen Receptor

>  <target_chembl_id>  (755) 
CHEMBL1871

>  <target_organism>  (755) 
Homo sapiens

>  <pchembl_median>  (755) 
6.27

$$$$
CHEMBL4740374
     RDKit          2D

 25 26  0  0  0  0  0  0  0  0999 V2000
    2.7990   -4.4462    0.0000 C   0  0  0  0  0  0  0  0  0  0  0  0
    1.5000   -5.1962    0.0000 C   0  0  0  0  0  0  0  0  0  0  0  0
    2.2500   -6.4952    0.0000 O   0  0  0  0  0  0  0  0  0  0  0  0
    0.2010   -5.9462    0.0000 C   0  0  0  0  0  0  0  0  0  0  0  0
    0.2010   -7.4462    0.0000 N   0  0  0  0  0  0  0  0  0  0  0  0
    1.4145   -8.3278    0.0000 C   0  0  0  0  0  0  0  0  0  0  0  0
    0.9510   -9.7544    0.0000 C   0  0  0  0  0  0  0  0  0  0  0  0
   -0.5490   -9.7544    0.0000 C   0  0  0  0  0  0  0  0  0  0  0  0
   -1.4307  -10.9679    0.0000 F   0  0  0  0  0  0  0  0  0  0  0  0
   -1.0126   -8.3278    0.0000 N   0  0  0  0  0  0  0  0  0  0  0  0
    0.7500   -3.8971    0.0000 C   0  0  0  0  0  0  0  0  0  0  0  0
   -0.7500   -3.8971    0.0000 O   0  0  0  0  0  0  0  0  0  0  0  0
    1.5000   -2.5981    0.0000 N   0  0  0  0  0  0  0  0  0  0  0  0
    0.7500   -1.2990    0.0000 C   0  0  0  0  0  0  0  0  0  0  0  0
    1.5000    0.0000    0.0000 C   0  0  0  0  0  0  0  0  0  0  0  0
    0.7500    1.2990    0.0000 C   0  0  0  0  0  0  0  0  0  0  0  0
   -0.7500    1.2990    0.0000 C   0  0  0  0  0  0  0  0  0  0  0  0
   -1.5000    2.5981    0.0000 C   0  0  0  0  0  0  0  0  0  0  0  0
   -2.2500    3.8971    0.0000 N   0  0  0  0  0  0  0  0  0  0  0  0
   -1.5000    0.0000    0.0000 C   0  0  0  0  0  0  0  0  0  0  0  0
   -3.0000    0.0000    0.0000 C   0  0  0  0  0  0  0  0  0  0  0  0
   -4.5000    0.0000    0.0000 F   0  0  0  0  0  0  0  0  0  0  0  0
   -3.0000   -1.5000    0.0000 F   0  0  0  0  0  0  0  0  0  0  0  0
   -3.0000    1.5000    0.0000 F   0  0  0  0  0  0  0  0  0  0  0  0
   -0.7500   -1.2990    0.0000 C   0  0  0  0  0  0  0  0  0  0  0  0
  2  1  1  6
  2  3  1  0
  2  4  1  0
  4  5  1  0
  5  6  1  0
  6  7  2  0
  7  8  1  0
  8  9  1  0
  8 10  2  0
  2 11  1  0
 11 12  2  0
 11 13  1  0
 13 14  1  0
 14 15  2  0
 15 16  1  0
 16 17  2  0
 17 18  1  0
 18 19  3  0
 17 20  1  0
 20 21  1  0
 21 22  1  0
 21 23  1  0
 21 24  1  0
 20 25  2  0
 10  5  1  0
 25 14  1  0
M  END
>  <assay_chembl_id>  (756) 
CHEMBL4676574

>  <assay_description>  (756) 
Antagonist activity at recombinant human AR expressed in HEK293 cells assessed as inhibition of R1881-induced transcriptional activity measured after 24 hrs by dual luciferase reporter gene assay

>  <parent_molecule_chembl_id>  (756) 
CHEMBL4740374

>  <canonical_smiles>  (756) 
C[C@](O)(Cn1ccc(F)n1)C(=O)Nc1ccc(C#N)c(C(F)(F)F)c1

>  <standard_type>  (756) 
IC50

>  <standard_relation>  (756) 
=

>  <standard_value>  (756) 
220.0

>  <standard_units>  (756) 
nM

>  <target_pref_name>  (756) 
Androgen Receptor

>  <target_chembl_id>  (756) 
CHEMBL1871

>  <target_organism>  (756) 
Homo sapiens

>  <pchembl_median>  (756) 
6.6

$$$$
CHEMBL4779474
     RDKit          2D

 24 25  0  0  0  0  0  0  0  0999 V2000
    2.7990   -4.4462    0.0000 C   0  0  0  0  0  0  0  0  0  0  0  0
    1.5000   -5.1962    0.0000 C   0  0  0  0  0  0  0  0  0  0  0  0
    2.2500   -6.4952    0.0000 O   0  0  0  0  0  0  0  0  0  0  0  0
    0.2010   -5.9462    0.0000 C   0  0  0  0  0  0  0  0  0  0  0  0
    0.2010   -7.4462    0.0000 N   0  0  0  0  0  0  0  0  0  0  0  0
    1.4145   -8.3278    0.0000 C   0  0  0  0  0  0  0  0  0  0  0  0
    0.9510   -9.7544    0.0000 C   0  0  0  0  0  0  0  0  0  0  0  0
   -0.5490   -9.7544    0.0000 C   0  0  0  0  0  0  0  0  0  0  0  0
   -1.0126   -8.3278    0.0000 N   0  0  0  0  0  0  0  0  0  0  0  0
    0.7500   -3.8971    0.0000 C   0  0  0  0  0  0  0  0  0  0  0  0
   -0.7500   -3.8971    0.0000 O   0  0  0  0  0  0  0  0  0  0  0  0
    1.5000   -2.5981    0.0000 N   0  0  0  0  0  0  0  0  0  0  0  0
    0.7500   -1.2990    0.0000 C   0  0  0  0  0  0  0  0  0  0  0  0
    1.5000    0.0000    0.0000 C   0  0  0  0  0  0  0  0  0  0  0  0
    0.7500    1.2990    0.0000 C   0  0  0  0  0  0  0  0  0  0  0  0
   -0.7500    1.2990    0.0000 C   0  0  0  0  0  0  0  0  0  0  0  0
   -1.5000    2.5981    0.0000 C   0  0  0  0  0  0  0  0  0  0  0  0
   -2.2500    3.8971    0.0000 N   0  0  0  0  0  0  0  0  0  0  0  0
   -1.5000    0.0000    0.0000 C   0  0  0  0  0  0  0  0  0  0  0  0
   -3.0000    0.0000    0.0000 C   0  0  0  0  0  0  0  0  0  0  0  0
   -4.5000    0.0000    0.0000 F   0  0  0  0  0  0  0  0  0  0  0  0
   -3.0000   -1.5000    0.0000 F   0  0  0  0  0  0  0  0  0  0  0  0
   -3.0000    1.5000    0.0000 F   0  0  0  0  0  0  0  0  0  0  0  0
   -0.7500   -1.2990    0.0000 C   0  0  0  0  0  0  0  0  0  0  0  0
  2  1  1  6
  2  3  1  0
  2  4  1  0
  4  5  1  0
  5  6  1  0
  6  7  2  0
  7  8  1  0
  8  9  2  0
  2 10  1  0
 10 11  2  0
 10 12  1  0
 12 13  1  0
 13 14  2  0
 14 15  1  0
 15 16  2  0
 16 17  1  0
 17 18  3  0
 16 19  1  0
 19 20  1  0
 20 21  1  0
 20 22  1  0
 20 23  1  0
 19 24  2  0
  9  5  1  0
 24 13  1  0
M  END
>  <assay_chembl_id>  (757) 
CHEMBL4676574

>  <assay_description>  (757) 
Antagonist activity at recombinant human AR expressed in HEK293 cells assessed as inhibition of R1881-induced transcriptional activity measured after 24 hrs by dual luciferase reporter gene assay

>  <parent_molecule_chembl_id>  (757) 
CHEMBL4779474

>  <canonical_smiles>  (757) 
C[C@](O)(Cn1cccn1)C(=O)Nc1ccc(C#N)c(C(F)(F)F)c1

>  <standard_type>  (757) 
IC50

>  <standard_relation>  (757) 
=

>  <standard_value>  (757) 
1442.0

>  <standard_units>  (757) 
nM

>  <target_pref_name>  (757) 
Androgen Receptor

>  <target_chembl_id>  (757) 
CHEMBL1871

>  <target_organism>  (757) 
Homo sapiens

>  <pchembl_median>  (757) 
7.315

$$$$
CHEMBL4572306
     RDKit          2D

 21 21  0  0  0  0  0  0  0  0999 V2000
    7.2990   -1.8481    0.0000 C   0  0  0  0  0  0  0  0  0  0  0  0
    6.0000   -2.5981    0.0000 C   0  0  0  0  0  0  0  0  0  0  0  0
    4.7010   -3.3481    0.0000 C   0  0  0  0  0  0  0  0  0  0  0  0
    5.2500   -1.2990    0.0000 N   0  0  0  0  0  0  0  0  0  0  0  0
    3.7500   -1.2990    0.0000 C   0  0  0  0  0  0  0  0  0  0  0  0
    3.0000   -2.5981    0.0000 O   0  0  0  0  0  0  0  0  0  0  0  0
    3.0000    0.0000    0.0000 N   0  0  0  0  0  0  0  0  0  0  0  0
    1.5000    0.0000    0.0000 C   0  0  0  0  0  0  0  0  0  0  0  0
    0.7500   -1.2990    0.0000 C   0  0  0  0  0  0  0  0  0  0  0  0
   -0.7500   -1.2990    0.0000 C   0  0  0  0  0  0  0  0  0  0  0  0
   -1.5000    0.0000    0.0000 C   0  0  0  0  0  0  0  0  0  0  0  0
   -3.0000    0.0000    0.0000 F   0  0  0  0  0  0  0  0  0  0  0  0
   -0.7500    1.2990    0.0000 C   0  0  0  0  0  0  0  0  0  0  0  0
   -1.5000    2.5981    0.0000 C   0  0  0  0  0  0  0  0  0  0  0  0
   -2.2500    3.8971    0.0000 F   0  0  0  0  0  0  0  0  0  0  0  0
   -0.2010    3.3481    0.0000 F   0  0  0  0  0  0  0  0  0  0  0  0
   -2.7990    1.8481    0.0000 F   0  0  0  0  0  0  0  0  0  0  0  0
    0.7500    1.2990    0.0000 C   0  0  0  0  0  0  0  0  0  0  0  0
    6.7500   -3.8971    0.0000 C   0  0  0  0  0  0  0  0  0  0  0  0
    8.2500   -3.8971    0.0000 O   0  0  0  0  0  0  0  0  0  0  0  0
    6.0000   -5.1962    0.0000 O   0  0  0  0  0  0  0  0  0  0  0  0
  1  2  1  0
  2  3  1  0
  2  4  1  0
  4  5  1  0
  5  6  2  0
  5  7  1  0
  7  8  1  0
  8  9  2  0
  9 10  1  0
 10 11  2  0
 11 12  1  0
 11 13  1  0
 13 14  1  0
 14 15  1  0
 14 16  1  0
 14 17  1  0
 13 18  2  0
  2 19  1  0
 19 20  2  0
 19 21  1  0
 18  8  1  0
M  END
>  <assay_chembl_id>  (758) 
CHEMBL4681685

>  <assay_description>  (758) 
Inhibition of wild-type androgen receptor in human LAPC4 cells assessed as inhibition of DHT-induced luciferase activity measured after 24 hrs by luciferase reporter assay

>  <parent_molecule_chembl_id>  (758) 
CHEMBL4572306

>  <canonical_smiles>  (758) 
CC(C)(NC(=O)Nc1ccc(F)c(C(F)(F)F)c1)C(=O)O

>  <standard_type>  (758) 
IC50

>  <standard_relation>  (758) 
=

>  <standard_value>  (758) 
3100.0

>  <standard_units>  (758) 
nM

>  <target_pref_name>  (758) 
Androgen Receptor

>  <target_chembl_id>  (758) 
CHEMBL1871

>  <target_organism>  (758) 
Homo sapiens

>  <pchembl_median>  (758) 
6.69

$$$$
CHEMBL4777133
     RDKit          2D

 21 22  0  0  0  0  0  0  0  0999 V2000
    2.6491    0.9642    0.0000 C   0  0  0  0  0  0  0  0  0  0  0  0
    1.5000    0.0000    0.0000 C   0  0  0  0  0  0  0  0  0  0  0  0
    2.6491   -0.9642    0.0000 C   0  0  0  0  0  0  0  0  0  0  0  0
    0.7500   -1.2990    0.0000 C   0  0  0  0  0  0  0  0  0  0  0  0
   -0.7500   -1.2990    0.0000 N   0  0  0  0  0  0  0  0  0  0  0  0
   -1.5000    0.0000    0.0000 C   0  0  0  0  0  0  0  0  0  0  0  0
   -3.0000    0.0000    0.0000 O   0  0  0  0  0  0  0  0  0  0  0  0
   -0.7500    1.2990    0.0000 N   0  0  0  0  0  0  0  0  0  0  0  0
   -1.5000    2.5981    0.0000 C   0  0  0  0  0  0  0  0  0  0  0  0
   -0.7500    3.8971    0.0000 C   0  0  0  0  0  0  0  0  0  0  0  0
   -1.5000    5.1962    0.0000 C   0  0  0  0  0  0  0  0  0  0  0  0
   -3.0000    5.1962    0.0000 C   0  0  0  0  0  0  0  0  0  0  0  0
   -3.7500    6.4952    0.0000 F   0  0  0  0  0  0  0  0  0  0  0  0
   -3.7500    3.8971    0.0000 C   0  0  0  0  0  0  0  0  0  0  0  0
   -5.2500    3.8971    0.0000 C   0  0  0  0  0  0  0  0  0  0  0  0
   -6.7500    3.8971    0.0000 F   0  0  0  0  0  0  0  0  0  0  0  0
   -5.2500    2.3971    0.0000 F   0  0  0  0  0  0  0  0  0  0  0  0
   -5.2500    5.3971    0.0000 F   0  0  0  0  0  0  0  0  0  0  0  0
   -3.0000    2.5981    0.0000 C   0  0  0  0  0  0  0  0  0  0  0  0
    0.7500    1.2990    0.0000 C   0  0  0  0  0  0  0  0  0  0  0  0
    1.5000    2.5981    0.0000 O   0  0  0  0  0  0  0  0  0  0  0  0
  1  2  1  0
  2  3  1  0
  2  4  1  0
  4  5  1  0
  5  6  1  0
  6  7  2  0
  6  8  1  0
  8  9  1  0
  9 10  2  0
 10 11  1  0
 11 12  2  0
 12 13  1  0
 12 14  1  0
 14 15  1  0
 15 16  1  0
 15 17  1  0
 15 18  1  0
 14 19  2  0
  8 20  1  0
 20 21  2  0
 20  2  1  0
 19  9  1  0
M  END
>  <assay_chembl_id>  (759) 
CHEMBL4681685

>  <assay_description>  (759) 
Inhibition of wild-type androgen receptor in human LAPC4 cells assessed as inhibition of DHT-induced luciferase activity measured after 24 hrs by luciferase reporter assay

>  <parent_molecule_chembl_id>  (759) 
CHEMBL4777133

>  <canonical_smiles>  (759) 
CC1(C)CNC(=O)N(c2ccc(F)c(C(F)(F)F)c2)C1=O

>  <standard_type>  (759) 
IC50

>  <standard_relation>  (759) 
=

>  <standard_value>  (759) 
6900.0

>  <standard_units>  (759) 
nM

>  <target_pref_name>  (759) 
Androgen Receptor

>  <target_chembl_id>  (759) 
CHEMBL1871

>  <target_organism>  (759) 
Homo sapiens

>  <pchembl_median>  (759) 
7.565

$$$$
CHEMBL4786811
     RDKit          2D

 20 21  0  0  0  0  0  0  0  0999 V2000
    0.0082   -5.1819    0.0000 C   0  0  0  0  0  0  0  0  0  0  0  0
    0.8899   -3.9684    0.0000 C   0  0  0  0  0  0  0  0  0  0  0  0
   -0.4091   -3.2184    0.0000 C   0  0  0  0  0  0  0  0  0  0  0  0
    2.0046   -4.9721    0.0000 C   0  0  0  0  0  0  0  0  0  0  0  0
    1.8478   -6.4639    0.0000 O   0  0  0  0  0  0  0  0  0  0  0  0
    3.3037   -4.2221    0.0000 N   0  0  0  0  0  0  0  0  0  0  0  0
    2.9918   -2.7549    0.0000 C   0  0  0  0  0  0  0  0  0  0  0  0
    3.9955   -1.6402    0.0000 O   0  0  0  0  0  0  0  0  0  0  0  0
    1.5000   -2.5981    0.0000 N   0  0  0  0  0  0  0  0  0  0  0  0
    0.7500   -1.2990    0.0000 C   0  0  0  0  0  0  0  0  0  0  0  0
    1.5000    0.0000    0.0000 C   0  0  0  0  0  0  0  0  0  0  0  0
    0.7500    1.2990    0.0000 C   0  0  0  0  0  0  0  0  0  0  0  0
   -0.7500    1.2990    0.0000 C   0  0  0  0  0  0  0  0  0  0  0  0
   -1.5000    2.5981    0.0000 F   0  0  0  0  0  0  0  0  0  0  0  0
   -1.5000    0.0000    0.0000 C   0  0  0  0  0  0  0  0  0  0  0  0
   -3.0000    0.0000    0.0000 C   0  0  0  0  0  0  0  0  0  0  0  0
   -4.5000    0.0000    0.0000 F   0  0  0  0  0  0  0  0  0  0  0  0
   -3.0000    1.5000    0.0000 F   0  0  0  0  0  0  0  0  0  0  0  0
   -3.0000   -1.5000    0.0000 F   0  0  0  0  0  0  0  0  0  0  0  0
   -0.7500   -1.2990    0.0000 C   0  0  0  0  0  0  0  0  0  0  0  0
  1  2  1  0
  2  3  1  0
  2  4  1  0
  4  5  2  0
  4  6  1  0
  6  7  1  0
  7  8  2  0
  7  9  1  0
  9 10  1  0
 10 11  2  0
 11 12  1  0
 12 13  2  0
 13 14  1  0
 13 15  1  0
 15 16  1  0
 16 17  1  0
 16 18  1  0
 16 19  1  0
 15 20  2  0
  9  2  1  0
 20 10  1  0
M  END
>  <assay_chembl_id>  (760) 
CHEMBL4681685

>  <assay_description>  (760) 
Inhibition of wild-type androgen receptor in human LAPC4 cells assessed as inhibition of DHT-induced luciferase activity measured after 24 hrs by luciferase reporter assay

>  <parent_molecule_chembl_id>  (760) 
CHEMBL4786811

>  <canonical_smiles>  (760) 
CC1(C)C(=O)NC(=O)N1c1ccc(F)c(C(F)(F)F)c1

>  <standard_type>  (760) 
IC50

>  <standard_relation>  (760) 
=

>  <standard_value>  (760) 
2800.0

>  <standard_units>  (760) 
nM

>  <target_pref_name>  (760) 
Androgen Receptor

>  <target_chembl_id>  (760) 
CHEMBL1871

>  <target_organism>  (760) 
Homo sapiens

>  <pchembl_median>  (760) 
6.0

$$$$
CHEMBL4777511
     RDKit          2D

 19 20  0  0  0  0  0  0  0  0999 V2000
    4.7302   -3.7586    0.0000 C   0  0  0  0  0  0  0  0  0  0  0  0
    3.3037   -4.2221    0.0000 C   0  0  0  0  0  0  0  0  0  0  0  0
    3.9138   -5.5924    0.0000 C   0  0  0  0  0  0  0  0  0  0  0  0
    2.9918   -2.7549    0.0000 C   0  0  0  0  0  0  0  0  0  0  0  0
    1.5000   -2.5981    0.0000 N   0  0  0  0  0  0  0  0  0  0  0  0
    0.7500   -1.2990    0.0000 C   0  0  0  0  0  0  0  0  0  0  0  0
    1.5000    0.0000    0.0000 C   0  0  0  0  0  0  0  0  0  0  0  0
    0.7500    1.2990    0.0000 C   0  0  0  0  0  0  0  0  0  0  0  0
   -0.7500    1.2990    0.0000 C   0  0  0  0  0  0  0  0  0  0  0  0
   -1.5000    2.5981    0.0000 F   0  0  0  0  0  0  0  0  0  0  0  0
   -1.5000    0.0000    0.0000 C   0  0  0  0  0  0  0  0  0  0  0  0
   -3.0000    0.0000    0.0000 C   0  0  0  0  0  0  0  0  0  0  0  0
   -4.5000    0.0000    0.0000 F   0  0  0  0  0  0  0  0  0  0  0  0
   -3.0000    1.5000    0.0000 F   0  0  0  0  0  0  0  0  0  0  0  0
   -3.0000   -1.5000    0.0000 F   0  0  0  0  0  0  0  0  0  0  0  0
   -0.7500   -1.2990    0.0000 C   0  0  0  0  0  0  0  0  0  0  0  0
    0.8899   -3.9684    0.0000 C   0  0  0  0  0  0  0  0  0  0  0  0
   -0.5773   -4.2803    0.0000 O   0  0  0  0  0  0  0  0  0  0  0  0
    2.0046   -4.9721    0.0000 N   0  0  0  0  0  0  0  0  0  0  0  0
  1  2  1  0
  2  3  1  0
  2  4  1  0
  4  5  1  0
  5  6  1  0
  6  7  2  0
  7  8  1  0
  8  9  2  0
  9 10  1  0
  9 11  1  0
 11 12  1  0
 12 13  1  0
 12 14  1  0
 12 15  1  0
 11 16  2  0
  5 17  1  0
 17 18  2  0
 17 19  1  0
 19  2  1  0
 16  6  1  0
M  END
>  <assay_chembl_id>  (761) 
CHEMBL4681685

>  <assay_description>  (761) 
Inhibition of wild-type androgen receptor in human LAPC4 cells assessed as inhibition of DHT-induced luciferase activity measured after 24 hrs by luciferase reporter assay

>  <parent_molecule_chembl_id>  (761) 
CHEMBL4777511

>  <canonical_smiles>  (761) 
CC1(C)CN(c2ccc(F)c(C(F)(F)F)c2)C(=O)N1

>  <standard_type>  (761) 
IC50

>  <standard_relation>  (761) 
=

>  <standard_value>  (761) 
8100.0

>  <standard_units>  (761) 
nM

>  <target_pref_name>  (761) 
Androgen Receptor

>  <target_chembl_id>  (761) 
CHEMBL1871

>  <target_organism>  (761) 
Homo sapiens

>  <pchembl_median>  (761) 
6.29

$$$$
CHEMBL4790269
     RDKit          2D

 20 21  0  0  0  0  0  0  0  0999 V2000
    2.8863   -6.1856    0.0000 C   0  0  0  0  0  0  0  0  0  0  0  0
    2.0046   -4.9721    0.0000 C   0  0  0  0  0  0  0  0  0  0  0  0
    0.8899   -5.9758    0.0000 C   0  0  0  0  0  0  0  0  0  0  0  0
    3.3037   -4.2221    0.0000 O   0  0  0  0  0  0  0  0  0  0  0  0
    2.9918   -2.7549    0.0000 C   0  0  0  0  0  0  0  0  0  0  0  0
    3.9955   -1.6402    0.0000 O   0  0  0  0  0  0  0  0  0  0  0  0
    1.5000   -2.5981    0.0000 N   0  0  0  0  0  0  0  0  0  0  0  0
    0.7500   -1.2990    0.0000 C   0  0  0  0  0  0  0  0  0  0  0  0
    1.5000    0.0000    0.0000 C   0  0  0  0  0  0  0  0  0  0  0  0
    0.7500    1.2990    0.0000 C   0  0  0  0  0  0  0  0  0  0  0  0
   -0.7500    1.2990    0.0000 C   0  0  0  0  0  0  0  0  0  0  0  0
   -1.5000    2.5981    0.0000 F   0  0  0  0  0  0  0  0  0  0  0  0
   -1.5000    0.0000    0.0000 C   0  0  0  0  0  0  0  0  0  0  0  0
   -3.0000    0.0000    0.0000 C   0  0  0  0  0  0  0  0  0  0  0  0
   -4.5000    0.0000    0.0000 F   0  0  0  0  0  0  0  0  0  0  0  0
   -3.0000    1.5000    0.0000 F   0  0  0  0  0  0  0  0  0  0  0  0
   -3.0000   -1.5000    0.0000 F   0  0  0  0  0  0  0  0  0  0  0  0
   -0.7500   -1.2990    0.0000 C   0  0  0  0  0  0  0  0  0  0  0  0
    0.8899   -3.9684    0.0000 C   0  0  0  0  0  0  0  0  0  0  0  0
   -0.5773   -4.2803    0.0000 O   0  0  0  0  0  0  0  0  0  0  0  0
  1  2  1  0
  2  3  1  0
  2  4  1  0
  4  5  1  0
  5  6  2  0
  5  7  1  0
  7  8  1  0
  8  9  2  0
  9 10  1  0
 10 11  2  0
 11 12  1  0
 11 13  1  0
 13 14  1  0
 14 15  1  0
 14 16  1  0
 14 17  1  0
 13 18  2  0
  7 19  1  0
 19 20  2  0
 19  2  1  0
 18  8  1  0
M  END
>  <assay_chembl_id>  (762) 
CHEMBL4681685

>  <assay_description>  (762) 
Inhibition of wild-type androgen receptor in human LAPC4 cells assessed as inhibition of DHT-induced luciferase activity measured after 24 hrs by luciferase reporter assay

>  <parent_molecule_chembl_id>  (762) 
CHEMBL4790269

>  <canonical_smiles>  (762) 
CC1(C)OC(=O)N(c2ccc(F)c(C(F)(F)F)c2)C1=O

>  <standard_type>  (762) 
IC50

>  <standard_relation>  (762) 
=

>  <standard_value>  (762) 
2100.0

>  <standard_units>  (762) 
nM

>  <target_pref_name>  (762) 
Androgen Receptor

>  <target_chembl_id>  (762) 
CHEMBL1871

>  <target_organism>  (762) 
Homo sapiens

>  <pchembl_median>  (762) 
7.015

$$$$
CHEMBL4787997
     RDKit          2D

 20 21  0  0  0  0  0  0  0  0999 V2000
    2.8863   -6.1856    0.0000 C   0  0  0  0  0  0  0  0  0  0  0  0
    2.0046   -4.9721    0.0000 C   0  0  0  0  0  0  0  0  0  0  0  0
    0.8899   -5.9758    0.0000 C   0  0  0  0  0  0  0  0  0  0  0  0
    3.3037   -4.2221    0.0000 C   0  0  0  0  0  0  0  0  0  0  0  0
    2.9918   -2.7549    0.0000 C   0  0  0  0  0  0  0  0  0  0  0  0
    3.9955   -1.6402    0.0000 O   0  0  0  0  0  0  0  0  0  0  0  0
    1.5000   -2.5981    0.0000 N   0  0  0  0  0  0  0  0  0  0  0  0
    0.7500   -1.2990    0.0000 C   0  0  0  0  0  0  0  0  0  0  0  0
    1.5000    0.0000    0.0000 C   0  0  0  0  0  0  0  0  0  0  0  0
    0.7500    1.2990    0.0000 C   0  0  0  0  0  0  0  0  0  0  0  0
   -0.7500    1.2990    0.0000 C   0  0  0  0  0  0  0  0  0  0  0  0
   -1.5000    2.5981    0.0000 F   0  0  0  0  0  0  0  0  0  0  0  0
   -1.5000    0.0000    0.0000 C   0  0  0  0  0  0  0  0  0  0  0  0
   -3.0000    0.0000    0.0000 C   0  0  0  0  0  0  0  0  0  0  0  0
   -4.5000    0.0000    0.0000 F   0  0  0  0  0  0  0  0  0  0  0  0
   -3.0000    1.5000    0.0000 F   0  0  0  0  0  0  0  0  0  0  0  0
   -3.0000   -1.5000    0.0000 F   0  0  0  0  0  0  0  0  0  0  0  0
   -0.7500   -1.2990    0.0000 C   0  0  0  0  0  0  0  0  0  0  0  0
    0.8899   -3.9684    0.0000 C   0  0  0  0  0  0  0  0  0  0  0  0
   -0.5773   -4.2803    0.0000 O   0  0  0  0  0  0  0  0  0  0  0  0
  1  2  1  0
  2  3  1  0
  2  4  1  0
  4  5  1  0
  5  6  2  0
  5  7  1  0
  7  8  1  0
  8  9  2  0
  9 10  1  0
 10 11  2  0
 11 12  1  0
 11 13  1  0
 13 14  1  0
 14 15  1  0
 14 16  1  0
 14 17  1  0
 13 18  2  0
  7 19  1  0
 19 20  2  0
 19  2  1  0
 18  8  1  0
M  END
>  <assay_chembl_id>  (763) 
CHEMBL4681685

>  <assay_description>  (763) 
Inhibition of wild-type androgen receptor in human LAPC4 cells assessed as inhibition of DHT-induced luciferase activity measured after 24 hrs by luciferase reporter assay

>  <parent_molecule_chembl_id>  (763) 
CHEMBL4787997

>  <canonical_smiles>  (763) 
CC1(C)CC(=O)N(c2ccc(F)c(C(F)(F)F)c2)C1=O

>  <standard_type>  (763) 
IC50

>  <standard_relation>  (763) 
=

>  <standard_value>  (763) 
910.0

>  <standard_units>  (763) 
nM

>  <target_pref_name>  (763) 
Androgen Receptor

>  <target_chembl_id>  (763) 
CHEMBL1871

>  <target_organism>  (763) 
Homo sapiens

>  <pchembl_median>  (763) 
7.395

$$$$
CHEMBL4778185
     RDKit          2D

 21 23  0  0  0  0  0  0  0  0999 V2000
    1.6078    3.5952    0.0000 O   0  0  0  0  0  0  0  0  0  0  0  0
    0.3943    2.7135    0.0000 C   0  0  0  0  0  0  0  0  0  0  0  0
    0.3943    1.2135    0.0000 C   0  0  0  0  0  0  0  0  0  0  0  0
    1.2760    0.0000    0.0000 C   0  0  0  0  0  0  0  0  0  0  0  0
    0.3943   -1.2135    0.0000 C   0  0  0  0  0  0  0  0  0  0  0  0
   -1.0323   -0.7500    0.0000 C   0  0  0  0  0  0  0  0  0  0  0  0
   -1.0323    0.7500    0.0000 N   0  0  0  0  0  0  0  0  0  0  0  0
   -1.9140    1.9635    0.0000 C   0  0  0  0  0  0  0  0  0  0  0  0
   -3.4140    1.9635    0.0000 O   0  0  0  0  0  0  0  0  0  0  0  0
   -1.0323    3.1771    0.0000 N   0  0  0  0  0  0  0  0  0  0  0  0
   -1.4958    4.6036    0.0000 C   0  0  0  0  0  0  0  0  0  0  0  0
   -0.4921    5.7184    0.0000 C   0  0  0  0  0  0  0  0  0  0  0  0
   -0.9556    7.1449    0.0000 C   0  0  0  0  0  0  0  0  0  0  0  0
   -2.4229    7.4568    0.0000 C   0  0  0  0  0  0  0  0  0  0  0  0
   -2.8864    8.8834    0.0000 F   0  0  0  0  0  0  0  0  0  0  0  0
   -3.4266    6.3421    0.0000 C   0  0  0  0  0  0  0  0  0  0  0  0
   -4.8938    6.6540    0.0000 C   0  0  0  0  0  0  0  0  0  0  0  0
   -6.3610    6.9658    0.0000 F   0  0  0  0  0  0  0  0  0  0  0  0
   -5.2056    5.1867    0.0000 F   0  0  0  0  0  0  0  0  0  0  0  0
   -4.5819    8.1212    0.0000 F   0  0  0  0  0  0  0  0  0  0  0  0
   -2.9630    4.9155    0.0000 C   0  0  0  0  0  0  0  0  0  0  0  0
  1  2  2  0
  2  3  1  0
  3  4  1  0
  4  5  1  0
  5  6  1  0
  6  7  1  0
  7  8  1  0
  8  9  2  0
  8 10  1  0
 10 11  1  0
 11 12  2  0
 12 13  1  0
 13 14  2  0
 14 15  1  0
 14 16  1  0
 16 17  1  0
 17 18  1  0
 17 19  1  0
 17 20  1  0
 16 21  2  0
 10  2  1  0
 21 11  1  0
  7  3  1  0
M  END
>  <assay_chembl_id>  (764) 
CHEMBL4681685

>  <assay_description>  (764) 
Inhibition of wild-type androgen receptor in human LAPC4 cells assessed as inhibition of DHT-induced luciferase activity measured after 24 hrs by luciferase reporter assay

>  <parent_molecule_chembl_id>  (764) 
CHEMBL4778185

>  <canonical_smiles>  (764) 
O=C1C2CCCN2C(=O)N1c1ccc(F)c(C(F)(F)F)c1

>  <standard_type>  (764) 
IC50

>  <standard_relation>  (764) 
=

>  <standard_value>  (764) 
3500.0

>  <standard_units>  (764) 
nM

>  <target_pref_name>  (764) 
Androgen Receptor

>  <target_chembl_id>  (764) 
CHEMBL1871

>  <target_organism>  (764) 
Homo sapiens

>  <pchembl_median>  (764) 
5.64

$$$$
CHEMBL4747499
     RDKit          2D

 23 25  0  0  0  0  0  0  0  0999 V2000
    3.9240   -3.5332    0.0000 O   0  0  0  0  0  0  0  0  0  0  0  0
    2.5537   -2.9231    0.0000 C   0  0  0  0  0  0  0  0  0  0  0  0
    2.2418   -1.4558    0.0000 N   0  0  0  0  0  0  0  0  0  0  0  0
    0.7500   -1.2990    0.0000 C   0  0  0  0  0  0  0  0  0  0  0  0
    1.5000    0.0000    0.0000 C   0  0  0  0  0  0  0  0  0  0  0  0
    0.7500    1.2990    0.0000 C   0  0  0  0  0  0  0  0  0  0  0  0
   -0.7500    1.2990    0.0000 C   0  0  0  0  0  0  0  0  0  0  0  0
   -1.5000    0.0000    0.0000 C   0  0  0  0  0  0  0  0  0  0  0  0
   -0.7500   -1.2990    0.0000 C   0  0  0  0  0  0  0  0  0  0  0  0
    0.1399   -2.6694    0.0000 C   0  0  0  0  0  0  0  0  0  0  0  0
   -1.3273   -2.9812    0.0000 O   0  0  0  0  0  0  0  0  0  0  0  0
    1.2546   -3.6731    0.0000 N   0  0  0  0  0  0  0  0  0  0  0  0
    1.0978   -5.1648    0.0000 C   0  0  0  0  0  0  0  0  0  0  0  0
   -0.2725   -5.7749    0.0000 C   0  0  0  0  0  0  0  0  0  0  0  0
   -0.4293   -7.2667    0.0000 C   0  0  0  0  0  0  0  0  0  0  0  0
    0.7842   -8.1484    0.0000 C   0  0  0  0  0  0  0  0  0  0  0  0
    0.6274   -9.6402    0.0000 F   0  0  0  0  0  0  0  0  0  0  0  0
    2.1546   -7.5383    0.0000 C   0  0  0  0  0  0  0  0  0  0  0  0
    3.3681   -8.4200    0.0000 C   0  0  0  0  0  0  0  0  0  0  0  0
    4.5816   -9.3017    0.0000 F   0  0  0  0  0  0  0  0  0  0  0  0
    4.2498   -7.2064    0.0000 F   0  0  0  0  0  0  0  0  0  0  0  0
    2.4864   -9.6335    0.0000 F   0  0  0  0  0  0  0  0  0  0  0  0
    2.3113   -6.0465    0.0000 C   0  0  0  0  0  0  0  0  0  0  0  0
  1  2  2  0
  2  3  1  0
  3  4  1  0
  4  5  1  0
  5  6  1  0
  6  7  1  0
  7  8  1  0
  8  9  1  0
  4 10  1  0
 10 11  2  0
 10 12  1  0
 12 13  1  0
 13 14  2  0
 14 15  1  0
 15 16  2  0
 16 17  1  0
 16 18  1  0
 18 19  1  0
 19 20  1  0
 19 21  1  0
 19 22  1  0
 18 23  2  0
 12  2  1  0
 23 13  1  0
  9  4  1  0
M  END
>  <assay_chembl_id>  (765) 
CHEMBL4681685

>  <assay_description>  (765) 
Inhibition of wild-type androgen receptor in human LAPC4 cells assessed as inhibition of DHT-induced luciferase activity measured after 24 hrs by luciferase reporter assay

>  <parent_molecule_chembl_id>  (765) 
CHEMBL4747499

>  <canonical_smiles>  (765) 
O=C1NC2(CCCCC2)C(=O)N1c1ccc(F)c(C(F)(F)F)c1

>  <standard_type>  (765) 
IC50

>  <standard_relation>  (765) 
=

>  <standard_value>  (765) 
4200.0

>  <standard_units>  (765) 
nM

>  <target_pref_name>  (765) 
Androgen Receptor

>  <target_chembl_id>  (765) 
CHEMBL1871

>  <target_organism>  (765) 
Homo sapiens

>  <pchembl_median>  (765) 
7.005

$$$$
CHEMBL4755665
     RDKit          2D

 22 24  0  0  0  0  0  0  0  0999 V2000
   -0.0692    5.0672    0.0000 O   0  0  0  0  0  0  0  0  0  0  0  0
    0.3943    3.6406    0.0000 C   0  0  0  0  0  0  0  0  0  0  0  0
   -0.4874    2.4271    0.0000 N   0  0  0  0  0  0  0  0  0  0  0  0
    0.3943    1.2135    0.0000 C   0  0  0  0  0  0  0  0  0  0  0  0
    1.2760    0.0000    0.0000 C   0  0  0  0  0  0  0  0  0  0  0  0
    0.3943   -1.2135    0.0000 C   0  0  0  0  0  0  0  0  0  0  0  0
   -1.0323   -0.7500    0.0000 C   0  0  0  0  0  0  0  0  0  0  0  0
   -1.0323    0.7500    0.0000 C   0  0  0  0  0  0  0  0  0  0  0  0
    1.8209    1.6771    0.0000 C   0  0  0  0  0  0  0  0  0  0  0  0
    3.0344    0.7954    0.0000 O   0  0  0  0  0  0  0  0  0  0  0  0
    1.8209    3.1771    0.0000 N   0  0  0  0  0  0  0  0  0  0  0  0
    3.0344    4.0587    0.0000 C   0  0  0  0  0  0  0  0  0  0  0  0
    4.4047    3.4486    0.0000 C   0  0  0  0  0  0  0  0  0  0  0  0
    5.6183    4.3303    0.0000 C   0  0  0  0  0  0  0  0  0  0  0  0
    5.4615    5.8221    0.0000 C   0  0  0  0  0  0  0  0  0  0  0  0
    6.6750    6.7038    0.0000 F   0  0  0  0  0  0  0  0  0  0  0  0
    4.0911    6.4322    0.0000 C   0  0  0  0  0  0  0  0  0  0  0  0
    3.9343    7.9240    0.0000 C   0  0  0  0  0  0  0  0  0  0  0  0
    3.7776    9.4158    0.0000 F   0  0  0  0  0  0  0  0  0  0  0  0
    2.4426    7.7672    0.0000 F   0  0  0  0  0  0  0  0  0  0  0  0
    5.4261    8.0808    0.0000 F   0  0  0  0  0  0  0  0  0  0  0  0
    2.8776    5.5505    0.0000 C   0  0  0  0  0  0  0  0  0  0  0  0
  1  2  2  0
  2  3  1  0
  3  4  1  0
  4  5  1  0
  5  6  1  0
  6  7  1  0
  7  8  1  0
  4  9  1  0
  9 10  2  0
  9 11  1  0
 11 12  1  0
 12 13  2  0
 13 14  1  0
 14 15  2  0
 15 16  1  0
 15 17  1  0
 17 18  1  0
 18 19  1  0
 18 20  1  0
 18 21  1  0
 17 22  2  0
 11  2  1  0
 22 12  1  0
  8  4  1  0
M  END
>  <assay_chembl_id>  (766) 
CHEMBL4681685

>  <assay_description>  (766) 
Inhibition of wild-type androgen receptor in human LAPC4 cells assessed as inhibition of DHT-induced luciferase activity measured after 24 hrs by luciferase reporter assay

>  <parent_molecule_chembl_id>  (766) 
CHEMBL4755665

>  <canonical_smiles>  (766) 
O=C1NC2(CCCC2)C(=O)N1c1ccc(F)c(C(F)(F)F)c1

>  <standard_type>  (766) 
IC50

>  <standard_relation>  (766) 
=

>  <standard_value>  (766) 
990.0

>  <standard_units>  (766) 
nM

>  <target_pref_name>  (766) 
Androgen Receptor

>  <target_chembl_id>  (766) 
CHEMBL1871

>  <target_organism>  (766) 
Homo sapiens

>  <pchembl_median>  (766) 
7.58

$$$$
CHEMBL4793158
     RDKit          2D

 21 22  0  0  0  0  0  0  0  0999 V2000
    2.8863   -6.1856    0.0000 C   0  0  0  0  0  0  0  0  0  0  0  0
    2.0046   -4.9721    0.0000 C   0  0  0  0  0  0  0  0  0  0  0  0
    0.8899   -5.9758    0.0000 C   0  0  0  0  0  0  0  0  0  0  0  0
   -0.5367   -5.5123    0.0000 O   0  0  0  0  0  0  0  0  0  0  0  0
    3.3037   -4.2221    0.0000 N   0  0  0  0  0  0  0  0  0  0  0  0
    2.9918   -2.7549    0.0000 C   0  0  0  0  0  0  0  0  0  0  0  0
    3.9955   -1.6402    0.0000 O   0  0  0  0  0  0  0  0  0  0  0  0
    1.5000   -2.5981    0.0000 N   0  0  0  0  0  0  0  0  0  0  0  0
    0.7500   -1.2990    0.0000 C   0  0  0  0  0  0  0  0  0  0  0  0
    1.5000    0.0000    0.0000 C   0  0  0  0  0  0  0  0  0  0  0  0
    0.7500    1.2990    0.0000 C   0  0  0  0  0  0  0  0  0  0  0  0
   -0.7500    1.2990    0.0000 C   0  0  0  0  0  0  0  0  0  0  0  0
   -1.5000    2.5981    0.0000 F   0  0  0  0  0  0  0  0  0  0  0  0
   -1.5000    0.0000    0.0000 C   0  0  0  0  0  0  0  0  0  0  0  0
   -3.0000    0.0000    0.0000 C   0  0  0  0  0  0  0  0  0  0  0  0
   -4.5000    0.0000    0.0000 F   0  0  0  0  0  0  0  0  0  0  0  0
   -3.0000    1.5000    0.0000 F   0  0  0  0  0  0  0  0  0  0  0  0
   -3.0000   -1.5000    0.0000 F   0  0  0  0  0  0  0  0  0  0  0  0
   -0.7500   -1.2990    0.0000 C   0  0  0  0  0  0  0  0  0  0  0  0
    0.8899   -3.9684    0.0000 C   0  0  0  0  0  0  0  0  0  0  0  0
   -0.5773   -4.2803    0.0000 O   0  0  0  0  0  0  0  0  0  0  0  0
  1  2  1  0
  2  3  1  0
  3  4  1  0
  2  5  1  0
  5  6  1  0
  6  7  2  0
  6  8  1  0
  8  9  1  0
  9 10  2  0
 10 11  1  0
 11 12  2  0
 12 13  1  0
 12 14  1  0
 14 15  1  0
 15 16  1  0
 15 17  1  0
 15 18  1  0
 14 19  2  0
  8 20  1  0
 20 21  2  0
 20  2  1  0
 19  9  1  0
M  END
>  <assay_chembl_id>  (767) 
CHEMBL4681685

>  <assay_description>  (767) 
Inhibition of wild-type androgen receptor in human LAPC4 cells assessed as inhibition of DHT-induced luciferase activity measured after 24 hrs by luciferase reporter assay

>  <parent_molecule_chembl_id>  (767) 
CHEMBL4793158

>  <canonical_smiles>  (767) 
CC1(CO)NC(=O)N(c2ccc(F)c(C(F)(F)F)c2)C1=O

>  <standard_type>  (767) 
IC50

>  <standard_relation>  (767) 
=

>  <standard_value>  (767) 
4800.0

>  <standard_units>  (767) 
nM

>  <target_pref_name>  (767) 
Androgen Receptor

>  <target_chembl_id>  (767) 
CHEMBL1871

>  <target_organism>  (767) 
Homo sapiens

>  <pchembl_median>  (767) 
6.59

$$$$
CHEMBL4763136
     RDKit          2D

 23 25  0  0  0  0  0  0  0  0999 V2000
    4.6740   -4.8322    0.0000 O   0  0  0  0  0  0  0  0  0  0  0  0
    3.3037   -4.2221    0.0000 C   0  0  0  0  0  0  0  0  0  0  0  0
    2.9918   -2.7549    0.0000 N   0  0  0  0  0  0  0  0  0  0  0  0
    1.5000   -2.5981    0.0000 C   0  0  0  0  0  0  0  0  0  0  0  0
    0.7500   -1.2990    0.0000 C   0  0  0  0  0  0  0  0  0  0  0  0
    1.5000    0.0000    0.0000 C   0  0  0  0  0  0  0  0  0  0  0  0
    0.7500    1.2990    0.0000 C   0  0  0  0  0  0  0  0  0  0  0  0
   -0.7500    1.2990    0.0000 C   0  0  0  0  0  0  0  0  0  0  0  0
   -1.5000    0.0000    0.0000 C   0  0  0  0  0  0  0  0  0  0  0  0
   -0.7500   -1.2990    0.0000 C   0  0  0  0  0  0  0  0  0  0  0  0
    0.8899   -3.9684    0.0000 C   0  0  0  0  0  0  0  0  0  0  0  0
   -0.5773   -4.2803    0.0000 O   0  0  0  0  0  0  0  0  0  0  0  0
    2.0046   -4.9721    0.0000 N   0  0  0  0  0  0  0  0  0  0  0  0
    1.8478   -6.4639    0.0000 C   0  0  0  0  0  0  0  0  0  0  0  0
    0.4775   -7.0740    0.0000 C   0  0  0  0  0  0  0  0  0  0  0  0
    0.3207   -8.5658    0.0000 C   0  0  0  0  0  0  0  0  0  0  0  0
    1.5342   -9.4474    0.0000 C   0  0  0  0  0  0  0  0  0  0  0  0
    1.3774  -10.9392    0.0000 F   0  0  0  0  0  0  0  0  0  0  0  0
    2.9046   -8.8373    0.0000 C   0  0  0  0  0  0  0  0  0  0  0  0
    4.1181   -9.7190    0.0000 C   0  0  0  0  0  0  0  0  0  0  0  0
    5.4884   -9.1089    0.0000 F   0  0  0  0  0  0  0  0  0  0  0  0
    3.9613  -11.2108    0.0000 F   0  0  0  0  0  0  0  0  0  0  0  0
    3.0613   -7.3456    0.0000 C   0  0  0  0  0  0  0  0  0  0  0  0
  1  2  2  0
  2  3  1  0
  3  4  1  0
  4  5  1  1
  5  6  2  0
  6  7  1  0
  7  8  2  0
  8  9  1  0
  9 10  2  0
  4 11  1  0
 11 12  2  0
 11 13  1  0
 13 14  1  0
 14 15  2  0
 15 16  1  0
 16 17  2  0
 17 18  1  0
 17 19  1  0
 19 20  1  0
 20 21  1  0
 20 22  1  0
 19 23  2  0
 13  2  1  0
 23 14  1  0
 10  5  1  0
M  END
>  <assay_chembl_id>  (768) 
CHEMBL4681685

>  <assay_description>  (768) 
Inhibition of wild-type androgen receptor in human LAPC4 cells assessed as inhibition of DHT-induced luciferase activity measured after 24 hrs by luciferase reporter assay

>  <parent_molecule_chembl_id>  (768) 
CHEMBL4763136

>  <canonical_smiles>  (768) 
O=C1N[C@H](c2ccccc2)C(=O)N1c1ccc(F)c(C(F)F)c1

>  <standard_type>  (768) 
IC50

>  <standard_relation>  (768) 
=

>  <standard_value>  (768) 
5300.0

>  <standard_units>  (768) 
nM

>  <target_pref_name>  (768) 
Androgen Receptor

>  <target_chembl_id>  (768) 
CHEMBL1871

>  <target_organism>  (768) 
Homo sapiens

>  <pchembl_median>  (768) 
6.35

$$$$
CHEMBL4793070
     RDKit          2D

 18 19  0  0  0  0  0  0  0  0999 V2000
   -0.5773   -4.2803    0.0000 O   0  0  0  0  0  0  0  0  0  0  0  0
    0.8899   -3.9684    0.0000 C   0  0  0  0  0  0  0  0  0  0  0  0
    2.0046   -4.9721    0.0000 C   0  0  0  0  0  0  0  0  0  0  0  0
    3.3037   -4.2221    0.0000 N   0  0  0  0  0  0  0  0  0  0  0  0
    2.9918   -2.7549    0.0000 C   0  0  0  0  0  0  0  0  0  0  0  0
    3.9955   -1.6402    0.0000 O   0  0  0  0  0  0  0  0  0  0  0  0
    1.5000   -2.5981    0.0000 N   0  0  0  0  0  0  0  0  0  0  0  0
    0.7500   -1.2990    0.0000 C   0  0  0  0  0  0  0  0  0  0  0  0
    1.5000    0.0000    0.0000 C   0  0  0  0  0  0  0  0  0  0  0  0
    0.7500    1.2990    0.0000 C   0  0  0  0  0  0  0  0  0  0  0  0
   -0.7500    1.2990    0.0000 C   0  0  0  0  0  0  0  0  0  0  0  0
   -1.5000    2.5981    0.0000 F   0  0  0  0  0  0  0  0  0  0  0  0
   -1.5000    0.0000    0.0000 C   0  0  0  0  0  0  0  0  0  0  0  0
   -3.0000    0.0000    0.0000 C   0  0  0  0  0  0  0  0  0  0  0  0
   -4.5000    0.0000    0.0000 F   0  0  0  0  0  0  0  0  0  0  0  0
   -3.0000    1.5000    0.0000 F   0  0  0  0  0  0  0  0  0  0  0  0
   -3.0000   -1.5000    0.0000 F   0  0  0  0  0  0  0  0  0  0  0  0
   -0.7500   -1.2990    0.0000 C   0  0  0  0  0  0  0  0  0  0  0  0
  1  2  2  0
  2  3  1  0
  3  4  1  0
  4  5  1  0
  5  6  2  0
  5  7  1  0
  7  8  1  0
  8  9  2  0
  9 10  1  0
 10 11  2  0
 11 12  1  0
 11 13  1  0
 13 14  1  0
 14 15  1  0
 14 16  1  0
 14 17  1  0
 13 18  2  0
  7  2  1  0
 18  8  1  0
M  END
>  <assay_chembl_id>  (769) 
CHEMBL4681685

>  <assay_description>  (769) 
Inhibition of wild-type androgen receptor in human LAPC4 cells assessed as inhibition of DHT-induced luciferase activity measured after 24 hrs by luciferase reporter assay

>  <parent_molecule_chembl_id>  (769) 
CHEMBL4793070

>  <canonical_smiles>  (769) 
O=C1CNC(=O)N1c1ccc(F)c(C(F)(F)F)c1

>  <standard_type>  (769) 
IC50

>  <standard_relation>  (769) 
=

>  <standard_value>  (769) 
260.0

>  <standard_units>  (769) 
nM

>  <target_pref_name>  (769) 
Androgen Receptor

>  <target_chembl_id>  (769) 
CHEMBL1871

>  <target_organism>  (769) 
Homo sapiens

>  <pchembl_median>  (769) 
6.45

$$$$
CHEMBL4743529
     RDKit          2D

 21 22  0  0  0  0  0  0  0  0999 V2000
   -1.6638   -6.8914    0.0000 C   0  0  0  0  0  0  0  0  0  0  0  0
   -1.0537   -5.5211    0.0000 C   0  0  0  0  0  0  0  0  0  0  0  0
   -2.4802   -5.0576    0.0000 C   0  0  0  0  0  0  0  0  0  0  0  0
    0.2454   -6.2711    0.0000 N   0  0  0  0  0  0  0  0  0  0  0  0
    1.3601   -5.2674    0.0000 C   0  0  0  0  0  0  0  0  0  0  0  0
    2.8273   -5.5793    0.0000 O   0  0  0  0  0  0  0  0  0  0  0  0
    0.7500   -3.8971    0.0000 N   0  0  0  0  0  0  0  0  0  0  0  0
    1.5000   -2.5981    0.0000 C   0  0  0  0  0  0  0  0  0  0  0  0
    0.7500   -1.2990    0.0000 C   0  0  0  0  0  0  0  0  0  0  0  0
    1.5000    0.0000    0.0000 C   0  0  0  0  0  0  0  0  0  0  0  0
    0.7500    1.2990    0.0000 C   0  0  0  0  0  0  0  0  0  0  0  0
   -0.7500    1.2990    0.0000 C   0  0  0  0  0  0  0  0  0  0  0  0
   -1.5000    2.5981    0.0000 F   0  0  0  0  0  0  0  0  0  0  0  0
   -1.5000    0.0000    0.0000 C   0  0  0  0  0  0  0  0  0  0  0  0
   -3.0000    0.0000    0.0000 C   0  0  0  0  0  0  0  0  0  0  0  0
   -4.5000    0.0000    0.0000 F   0  0  0  0  0  0  0  0  0  0  0  0
   -3.0000    1.5000    0.0000 F   0  0  0  0  0  0  0  0  0  0  0  0
   -3.0000   -1.5000    0.0000 F   0  0  0  0  0  0  0  0  0  0  0  0
   -0.7500   -1.2990    0.0000 C   0  0  0  0  0  0  0  0  0  0  0  0
   -0.7418   -4.0539    0.0000 C   0  0  0  0  0  0  0  0  0  0  0  0
   -1.7455   -2.9392    0.0000 O   0  0  0  0  0  0  0  0  0  0  0  0
  1  2  1  0
  2  3  1  0
  2  4  1  0
  4  5  1  0
  5  6  2  0
  5  7  1  0
  7  8  1  0
  8  9  1  0
  9 10  2  0
 10 11  1  0
 11 12  2  0
 12 13  1  0
 12 14  1  0
 14 15  1  0
 15 16  1  0
 15 17  1  0
 15 18  1  0
 14 19  2  0
  7 20  1  0
 20 21  2  0
 20  2  1  0
 19  9  1  0
M  END
>  <assay_chembl_id>  (770) 
CHEMBL4681685

>  <assay_description>  (770) 
Inhibition of wild-type androgen receptor in human LAPC4 cells assessed as inhibition of DHT-induced luciferase activity measured after 24 hrs by luciferase reporter assay

>  <parent_molecule_chembl_id>  (770) 
CHEMBL4743529

>  <canonical_smiles>  (770) 
CC1(C)NC(=O)N(Cc2ccc(F)c(C(F)(F)F)c2)C1=O

>  <standard_type>  (770) 
IC50

>  <standard_relation>  (770) 
=

>  <standard_value>  (770) 
4200.0

>  <standard_units>  (770) 
nM

>  <target_pref_name>  (770) 
Androgen Receptor

>  <target_chembl_id>  (770) 
CHEMBL1871

>  <target_organism>  (770) 
Homo sapiens

>  <pchembl_median>  (770) 
6.655

$$$$
CHEMBL4763876
     RDKit          2D

 15 16  0  0  0  0  0  0  0  0999 V2000
    2.8863   -6.1856    0.0000 C   0  0  0  0  0  0  0  0  0  0  0  0
    2.0046   -4.9721    0.0000 C   0  0  0  0  0  0  0  0  0  0  0  0
    0.8899   -5.9758    0.0000 C   0  0  0  0  0  0  0  0  0  0  0  0
    3.3037   -4.2221    0.0000 N   0  0  0  0  0  0  0  0  0  0  0  0
    2.9918   -2.7549    0.0000 C   0  0  0  0  0  0  0  0  0  0  0  0
    3.9955   -1.6402    0.0000 O   0  0  0  0  0  0  0  0  0  0  0  0
    1.5000   -2.5981    0.0000 N   0  0  0  0  0  0  0  0  0  0  0  0
    0.7500   -1.2990    0.0000 C   0  0  0  0  0  0  0  0  0  0  0  0
    1.5000    0.0000    0.0000 C   0  0  0  0  0  0  0  0  0  0  0  0
    0.7500    1.2990    0.0000 C   0  0  0  0  0  0  0  0  0  0  0  0
   -0.7500    1.2990    0.0000 C   0  0  0  0  0  0  0  0  0  0  0  0
   -1.5000    0.0000    0.0000 N   0  0  0  0  0  0  0  0  0  0  0  0
   -0.7500   -1.2990    0.0000 C   0  0  0  0  0  0  0  0  0  0  0  0
    0.8899   -3.9684    0.0000 C   0  0  0  0  0  0  0  0  0  0  0  0
   -0.5773   -4.2803    0.0000 O   0  0  0  0  0  0  0  0  0  0  0  0
  1  2  1  0
  2  3  1  0
  2  4  1  0
  4  5  1  0
  5  6  2  0
  5  7  1  0
  7  8  1  0
  8  9  2  0
  9 10  1  0
 10 11  2  0
 11 12  1  0
 12 13  2  0
  7 14  1  0
 14 15  2  0
 14  2  1  0
 13  8  1  0
M  END
>  <assay_chembl_id>  (771) 
CHEMBL4681685

>  <assay_description>  (771) 
Inhibition of wild-type androgen receptor in human LAPC4 cells assessed as inhibition of DHT-induced luciferase activity measured after 24 hrs by luciferase reporter assay

>  <parent_molecule_chembl_id>  (771) 
CHEMBL4763876

>  <canonical_smiles>  (771) 
CC1(C)NC(=O)N(c2cccnc2)C1=O

>  <standard_type>  (771) 
IC50

>  <standard_relation>  (771) 
=

>  <standard_value>  (771) 
9600.0

>  <standard_units>  (771) 
nM

>  <target_pref_name>  (771) 
Androgen Receptor

>  <target_chembl_id>  (771) 
CHEMBL1871

>  <target_organism>  (771) 
Homo sapiens

>  <pchembl_median>  (771) 
7.075

$$$$
CHEMBL4778298
     RDKit          2D

 19 21  0  0  0  0  0  0  0  0999 V2000
   -6.8000   -2.0049    0.0000 C   0  0  0  0  0  0  0  0  0  0  0  0
   -5.3083   -1.8481    0.0000 C   0  0  0  0  0  0  0  0  0  0  0  0
   -5.6201   -0.3809    0.0000 C   0  0  0  0  0  0  0  0  0  0  0  0
   -5.3083   -3.3481    0.0000 N   0  0  0  0  0  0  0  0  0  0  0  0
   -3.8817   -3.8116    0.0000 C   0  0  0  0  0  0  0  0  0  0  0  0
   -3.4182   -5.2382    0.0000 O   0  0  0  0  0  0  0  0  0  0  0  0
   -3.0000   -2.5981    0.0000 N   0  0  0  0  0  0  0  0  0  0  0  0
   -1.5000   -2.5981    0.0000 C   0  0  0  0  0  0  0  0  0  0  0  0
   -0.7500   -3.8971    0.0000 C   0  0  0  0  0  0  0  0  0  0  0  0
    0.7500   -3.8971    0.0000 C   0  0  0  0  0  0  0  0  0  0  0  0
    1.5000   -2.5981    0.0000 N   0  0  0  0  0  0  0  0  0  0  0  0
    0.7500   -1.2990    0.0000 C   0  0  0  0  0  0  0  0  0  0  0  0
    1.5000    0.0000    0.0000 C   0  0  0  0  0  0  0  0  0  0  0  0
    0.7500    1.2990    0.0000 C   0  0  0  0  0  0  0  0  0  0  0  0
   -0.7500    1.2990    0.0000 C   0  0  0  0  0  0  0  0  0  0  0  0
   -1.5000    0.0000    0.0000 C   0  0  0  0  0  0  0  0  0  0  0  0
   -0.7500   -1.2990    0.0000 C   0  0  0  0  0  0  0  0  0  0  0  0
   -3.8817   -1.3846    0.0000 C   0  0  0  0  0  0  0  0  0  0  0  0
   -3.4182    0.0420    0.0000 O   0  0  0  0  0  0  0  0  0  0  0  0
  1  2  1  0
  2  3  1  0
  2  4  1  0
  4  5  1  0
  5  6  2  0
  5  7  1  0
  7  8  1  0
  8  9  2  0
  9 10  1  0
 10 11  2  0
 11 12  1  0
 12 13  2  0
 13 14  1  0
 14 15  2  0
 15 16  1  0
 16 17  2  0
  7 18  1  0
 18 19  2  0
 18  2  1  0
 17  8  1  0
 17 12  1  0
M  END
>  <assay_chembl_id>  (772) 
CHEMBL4681685

>  <assay_description>  (772) 
Inhibition of wild-type androgen receptor in human LAPC4 cells assessed as inhibition of DHT-induced luciferase activity measured after 24 hrs by luciferase reporter assay

>  <parent_molecule_chembl_id>  (772) 
CHEMBL4778298

>  <canonical_smiles>  (772) 
CC1(C)NC(=O)N(c2ccnc3ccccc23)C1=O

>  <standard_type>  (772) 
IC50

>  <standard_relation>  (772) 
=

>  <standard_value>  (772) 
1300.0

>  <standard_units>  (772) 
nM

>  <target_pref_name>  (772) 
Androgen Receptor

>  <target_chembl_id>  (772) 
CHEMBL1871

>  <target_organism>  (772) 
Homo sapiens

>  <pchembl_median>  (772) 
6.395

$$$$
CHEMBL4748422
     RDKit          2D

 19 20  0  0  0  0  0  0  0  0999 V2000
    2.8863   -6.1856    0.0000 C   0  0  0  0  0  0  0  0  0  0  0  0
    2.0046   -4.9721    0.0000 C   0  0  0  0  0  0  0  0  0  0  0  0
    0.8899   -5.9758    0.0000 C   0  0  0  0  0  0  0  0  0  0  0  0
    3.3037   -4.2221    0.0000 N   0  0  0  0  0  0  0  0  0  0  0  0
    2.9918   -2.7549    0.0000 C   0  0  0  0  0  0  0  0  0  0  0  0
    3.9955   -1.6402    0.0000 O   0  0  0  0  0  0  0  0  0  0  0  0
    1.5000   -2.5981    0.0000 N   0  0  0  0  0  0  0  0  0  0  0  0
    0.7500   -1.2990    0.0000 C   0  0  0  0  0  0  0  0  0  0  0  0
    1.5000    0.0000    0.0000 C   0  0  0  0  0  0  0  0  0  0  0  0
    0.7500    1.2990    0.0000 C   0  0  0  0  0  0  0  0  0  0  0  0
   -0.7500    1.2990    0.0000 N   0  0  0  0  0  0  0  0  0  0  0  0
   -1.5000    0.0000    0.0000 C   0  0  0  0  0  0  0  0  0  0  0  0
   -3.0000    0.0000    0.0000 C   0  0  0  0  0  0  0  0  0  0  0  0
   -4.5000    0.0000    0.0000 F   0  0  0  0  0  0  0  0  0  0  0  0
   -3.0000    1.5000    0.0000 F   0  0  0  0  0  0  0  0  0  0  0  0
   -3.0000   -1.5000    0.0000 F   0  0  0  0  0  0  0  0  0  0  0  0
   -0.7500   -1.2990    0.0000 C   0  0  0  0  0  0  0  0  0  0  0  0
    0.8899   -3.9684    0.0000 C   0  0  0  0  0  0  0  0  0  0  0  0
   -0.5773   -4.2803    0.0000 O   0  0  0  0  0  0  0  0  0  0  0  0
  1  2  1  0
  2  3  1  0
  2  4  1  0
  4  5  1  0
  5  6  2  0
  5  7  1  0
  7  8  1  0
  8  9  2  0
  9 10  1  0
 10 11  2  0
 11 12  1  0
 12 13  1  0
 13 14  1  0
 13 15  1  0
 13 16  1  0
 12 17  2  0
  7 18  1  0
 18 19  2  0
 18  2  1  0
 17  8  1  0
M  END
>  <assay_chembl_id>  (773) 
CHEMBL4681685

>  <assay_description>  (773) 
Inhibition of wild-type androgen receptor in human LAPC4 cells assessed as inhibition of DHT-induced luciferase activity measured after 24 hrs by luciferase reporter assay

>  <parent_molecule_chembl_id>  (773) 
CHEMBL4748422

>  <canonical_smiles>  (773) 
CC1(C)NC(=O)N(c2ccnc(C(F)(F)F)c2)C1=O

>  <standard_type>  (773) 
IC50

>  <standard_relation>  (773) 
=

>  <standard_value>  (773) 
4500.0

>  <standard_units>  (773) 
nM

>  <target_pref_name>  (773) 
Androgen Receptor

>  <target_chembl_id>  (773) 
CHEMBL1871

>  <target_organism>  (773) 
Homo sapiens

>  <pchembl_median>  (773) 
6.62

$$$$
CHEMBL4782426
     RDKit          2D

 15 16  0  0  0  0  0  0  0  0999 V2000
    2.8863   -6.1856    0.0000 C   0  0  0  0  0  0  0  0  0  0  0  0
    2.0046   -4.9721    0.0000 C   0  0  0  0  0  0  0  0  0  0  0  0
    0.8899   -5.9758    0.0000 C   0  0  0  0  0  0  0  0  0  0  0  0
    3.3037   -4.2221    0.0000 N   0  0  0  0  0  0  0  0  0  0  0  0
    2.9918   -2.7549    0.0000 C   0  0  0  0  0  0  0  0  0  0  0  0
    3.9955   -1.6402    0.0000 O   0  0  0  0  0  0  0  0  0  0  0  0
    1.5000   -2.5981    0.0000 N   0  0  0  0  0  0  0  0  0  0  0  0
    0.7500   -1.2990    0.0000 C   0  0  0  0  0  0  0  0  0  0  0  0
    1.5000    0.0000    0.0000 C   0  0  0  0  0  0  0  0  0  0  0  0
    0.7500    1.2990    0.0000 C   0  0  0  0  0  0  0  0  0  0  0  0
   -0.7500    1.2990    0.0000 N   0  0  0  0  0  0  0  0  0  0  0  0
   -1.5000    0.0000    0.0000 C   0  0  0  0  0  0  0  0  0  0  0  0
   -0.7500   -1.2990    0.0000 C   0  0  0  0  0  0  0  0  0  0  0  0
    0.8899   -3.9684    0.0000 C   0  0  0  0  0  0  0  0  0  0  0  0
   -0.5773   -4.2803    0.0000 O   0  0  0  0  0  0  0  0  0  0  0  0
  1  2  1  0
  2  3  1  0
  2  4  1  0
  4  5  1  0
  5  6  2  0
  5  7  1  0
  7  8  1  0
  8  9  2  0
  9 10  1  0
 10 11  2  0
 11 12  1  0
 12 13  2  0
  7 14  1  0
 14 15  2  0
 14  2  1  0
 13  8  1  0
M  END
>  <assay_chembl_id>  (774) 
CHEMBL4681685

>  <assay_description>  (774) 
Inhibition of wild-type androgen receptor in human LAPC4 cells assessed as inhibition of DHT-induced luciferase activity measured after 24 hrs by luciferase reporter assay

>  <parent_molecule_chembl_id>  (774) 
CHEMBL4782426

>  <canonical_smiles>  (774) 
CC1(C)NC(=O)N(c2ccncc2)C1=O

>  <standard_type>  (774) 
IC50

>  <standard_relation>  (774) 
=

>  <standard_value>  (774) 
3800.0

>  <standard_units>  (774) 
nM

>  <target_pref_name>  (774) 
Androgen Receptor

>  <target_chembl_id>  (774) 
CHEMBL1871

>  <target_organism>  (774) 
Homo sapiens

>  <pchembl_median>  (774) 
4.83

$$$$
CHEMBL4746443
     RDKit          2D

 21 22  0  0  0  0  0  0  0  0999 V2000
    5.2500   -1.2990    0.0000 C   0  0  0  0  0  0  0  0  0  0  0  0
    3.7500   -1.2990    0.0000 N   0  0  0  0  0  0  0  0  0  0  0  0
    3.0000   -2.5981    0.0000 C   0  0  0  0  0  0  0  0  0  0  0  0
    3.0000    0.0000    0.0000 C   0  0  0  0  0  0  0  0  0  0  0  0
    3.7500    1.2990    0.0000 O   0  0  0  0  0  0  0  0  0  0  0  0
    1.5000    0.0000    0.0000 C   0  0  0  0  0  0  0  0  0  0  0  0
    0.7500   -1.2990    0.0000 C   0  0  0  0  0  0  0  0  0  0  0  0
   -0.7500   -1.2990    0.0000 C   0  0  0  0  0  0  0  0  0  0  0  0
   -1.5000   -2.5981    0.0000 N   0  0  0  0  0  0  0  0  0  0  0  0
   -0.8899   -3.9684    0.0000 C   0  0  0  0  0  0  0  0  0  0  0  0
    0.5773   -4.2803    0.0000 O   0  0  0  0  0  0  0  0  0  0  0  0
   -2.0046   -4.9721    0.0000 N   0  0  0  0  0  0  0  0  0  0  0  0
   -3.3037   -4.2221    0.0000 C   0  0  0  0  0  0  0  0  0  0  0  0
   -3.9138   -5.5924    0.0000 C   0  0  0  0  0  0  0  0  0  0  0  0
   -4.7302   -3.7586    0.0000 C   0  0  0  0  0  0  0  0  0  0  0  0
   -2.9918   -2.7549    0.0000 C   0  0  0  0  0  0  0  0  0  0  0  0
   -3.9955   -1.6402    0.0000 O   0  0  0  0  0  0  0  0  0  0  0  0
   -1.5000    0.0000    0.0000 C   0  0  0  0  0  0  0  0  0  0  0  0
   -0.7500    1.2990    0.0000 C   0  0  0  0  0  0  0  0  0  0  0  0
    0.7500    1.2990    0.0000 C   0  0  0  0  0  0  0  0  0  0  0  0
    1.5000    2.5981    0.0000 F   0  0  0  0  0  0  0  0  0  0  0  0
  1  2  1  0
  2  3  1  0
  2  4  1  0
  4  5  2  0
  4  6  1  0
  6  7  2  0
  7  8  1  0
  8  9  1  0
  9 10  1  0
 10 11  2  0
 10 12  1  0
 12 13  1  0
 13 14  1  0
 13 15  1  0
 13 16  1  0
 16 17  2  0
  8 18  2  0
 18 19  1  0
 19 20  2  0
 20 21  1  0
 20  6  1  0
 16  9  1  0
M  END
>  <assay_chembl_id>  (775) 
CHEMBL4681685

>  <assay_description>  (775) 
Inhibition of wild-type androgen receptor in human LAPC4 cells assessed as inhibition of DHT-induced luciferase activity measured after 24 hrs by luciferase reporter assay

>  <parent_molecule_chembl_id>  (775) 
CHEMBL4746443

>  <canonical_smiles>  (775) 
CN(C)C(=O)c1cc(N2C(=O)NC(C)(C)C2=O)ccc1F

>  <standard_type>  (775) 
IC50

>  <standard_relation>  (775) 
=

>  <standard_value>  (775) 
9100.0

>  <standard_units>  (775) 
nM

>  <target_pref_name>  (775) 
Androgen Receptor

>  <target_chembl_id>  (775) 
CHEMBL1871

>  <target_organism>  (775) 
Homo sapiens

>  <pchembl_median>  (775) 
5.0

$$$$
CHEMBL4799429
     RDKit          2D

 18 19  0  0  0  0  0  0  0  0999 V2000
    2.8863   -6.1856    0.0000 C   0  0  0  0  0  0  0  0  0  0  0  0
    2.0046   -4.9721    0.0000 C   0  0  0  0  0  0  0  0  0  0  0  0
    0.8899   -5.9758    0.0000 C   0  0  0  0  0  0  0  0  0  0  0  0
    3.3037   -4.2221    0.0000 N   0  0  0  0  0  0  0  0  0  0  0  0
    2.9918   -2.7549    0.0000 C   0  0  0  0  0  0  0  0  0  0  0  0
    3.9955   -1.6402    0.0000 O   0  0  0  0  0  0  0  0  0  0  0  0
    1.5000   -2.5981    0.0000 N   0  0  0  0  0  0  0  0  0  0  0  0
    0.7500   -1.2990    0.0000 C   0  0  0  0  0  0  0  0  0  0  0  0
    1.5000    0.0000    0.0000 C   0  0  0  0  0  0  0  0  0  0  0  0
    0.7500    1.2990    0.0000 C   0  0  0  0  0  0  0  0  0  0  0  0
   -0.7500    1.2990    0.0000 C   0  0  0  0  0  0  0  0  0  0  0  0
   -1.5000    2.5981    0.0000 F   0  0  0  0  0  0  0  0  0  0  0  0
   -1.5000    0.0000    0.0000 C   0  0  0  0  0  0  0  0  0  0  0  0
   -3.0000    0.0000    0.0000 C   0  0  0  0  0  0  0  0  0  0  0  0
   -4.5000    0.0000    0.0000 N   0  0  0  0  0  0  0  0  0  0  0  0
   -0.7500   -1.2990    0.0000 C   0  0  0  0  0  0  0  0  0  0  0  0
    0.8899   -3.9684    0.0000 C   0  0  0  0  0  0  0  0  0  0  0  0
   -0.5773   -4.2803    0.0000 O   0  0  0  0  0  0  0  0  0  0  0  0
  1  2  1  0
  2  3  1  0
  2  4  1  0
  4  5  1  0
  5  6  2  0
  5  7  1  0
  7  8  1  0
  8  9  2  0
  9 10  1  0
 10 11  2  0
 11 12  1  0
 11 13  1  0
 13 14  1  0
 14 15  3  0
 13 16  2  0
  7 17  1  0
 17 18  2  0
 17  2  1  0
 16  8  1  0
M  END
>  <assay_chembl_id>  (776) 
CHEMBL4681685

>  <assay_description>  (776) 
Inhibition of wild-type androgen receptor in human LAPC4 cells assessed as inhibition of DHT-induced luciferase activity measured after 24 hrs by luciferase reporter assay

>  <parent_molecule_chembl_id>  (776) 
CHEMBL4799429

>  <canonical_smiles>  (776) 
CC1(C)NC(=O)N(c2ccc(F)c(C#N)c2)C1=O

>  <standard_type>  (776) 
IC50

>  <standard_relation>  (776) 
=

>  <standard_value>  (776) 
3700.0

>  <standard_units>  (776) 
nM

>  <target_pref_name>  (776) 
Androgen Receptor

>  <target_chembl_id>  (776) 
CHEMBL1871

>  <target_organism>  (776) 
Homo sapiens

>  <pchembl_median>  (776) 
6.36

$$$$
CHEMBL4750103
     RDKit          2D

 20 21  0  0  0  0  0  0  0  0999 V2000
    2.8863   -6.1856    0.0000 C   0  0  0  0  0  0  0  0  0  0  0  0
    2.0046   -4.9721    0.0000 C   0  0  0  0  0  0  0  0  0  0  0  0
    0.8899   -5.9758    0.0000 C   0  0  0  0  0  0  0  0  0  0  0  0
    3.3037   -4.2221    0.0000 N   0  0  0  0  0  0  0  0  0  0  0  0
    2.9918   -2.7549    0.0000 C   0  0  0  0  0  0  0  0  0  0  0  0
    3.9955   -1.6402    0.0000 O   0  0  0  0  0  0  0  0  0  0  0  0
    1.5000   -2.5981    0.0000 N   0  0  0  0  0  0  0  0  0  0  0  0
    0.7500   -1.2990    0.0000 C   0  0  0  0  0  0  0  0  0  0  0  0
    1.5000    0.0000    0.0000 C   0  0  0  0  0  0  0  0  0  0  0  0
    0.7500    1.2990    0.0000 C   0  0  0  0  0  0  0  0  0  0  0  0
   -0.7500    1.2990    0.0000 C   0  0  0  0  0  0  0  0  0  0  0  0
   -1.5000    2.5981    0.0000 Cl  0  0  0  0  0  0  0  0  0  0  0  0
   -1.5000    0.0000    0.0000 C   0  0  0  0  0  0  0  0  0  0  0  0
   -3.0000    0.0000    0.0000 C   0  0  0  0  0  0  0  0  0  0  0  0
   -4.5000    0.0000    0.0000 F   0  0  0  0  0  0  0  0  0  0  0  0
   -3.0000    1.5000    0.0000 F   0  0  0  0  0  0  0  0  0  0  0  0
   -3.0000   -1.5000    0.0000 F   0  0  0  0  0  0  0  0  0  0  0  0
   -0.7500   -1.2990    0.0000 C   0  0  0  0  0  0  0  0  0  0  0  0
    0.8899   -3.9684    0.0000 C   0  0  0  0  0  0  0  0  0  0  0  0
   -0.5773   -4.2803    0.0000 O   0  0  0  0  0  0  0  0  0  0  0  0
  1  2  1  0
  2  3  1  0
  2  4  1  0
  4  5  1  0
  5  6  2  0
  5  7  1  0
  7  8  1  0
  8  9  2  0
  9 10  1  0
 10 11  2  0
 11 12  1  0
 11 13  1  0
 13 14  1  0
 14 15  1  0
 14 16  1  0
 14 17  1  0
 13 18  2  0
  7 19  1  0
 19 20  2  0
 19  2  1  0
 18  8  1  0
M  END
>  <assay_chembl_id>  (777) 
CHEMBL4681685

>  <assay_description>  (777) 
Inhibition of wild-type androgen receptor in human LAPC4 cells assessed as inhibition of DHT-induced luciferase activity measured after 24 hrs by luciferase reporter assay

>  <parent_molecule_chembl_id>  (777) 
CHEMBL4750103

>  <canonical_smiles>  (777) 
CC1(C)NC(=O)N(c2ccc(Cl)c(C(F)(F)F)c2)C1=O

>  <standard_type>  (777) 
IC50

>  <standard_relation>  (777) 
=

>  <standard_value>  (777) 
1300.0

>  <standard_units>  (777) 
nM

>  <target_pref_name>  (777) 
Androgen Receptor

>  <target_chembl_id>  (777) 
CHEMBL1871

>  <target_organism>  (777) 
Homo sapiens

>  <pchembl_median>  (777) 
5.21

$$$$
CHEMBL4781708
     RDKit          2D

 19 20  0  0  0  0  0  0  0  0999 V2000
    2.8863   -6.1856    0.0000 C   0  0  0  0  0  0  0  0  0  0  0  0
    2.0046   -4.9721    0.0000 C   0  0  0  0  0  0  0  0  0  0  0  0
    0.8899   -5.9758    0.0000 C   0  0  0  0  0  0  0  0  0  0  0  0
    3.3037   -4.2221    0.0000 N   0  0  0  0  0  0  0  0  0  0  0  0
    2.9918   -2.7549    0.0000 C   0  0  0  0  0  0  0  0  0  0  0  0
    3.9955   -1.6402    0.0000 O   0  0  0  0  0  0  0  0  0  0  0  0
    1.5000   -2.5981    0.0000 N   0  0  0  0  0  0  0  0  0  0  0  0
    0.7500   -1.2990    0.0000 C   0  0  0  0  0  0  0  0  0  0  0  0
    1.5000    0.0000    0.0000 C   0  0  0  0  0  0  0  0  0  0  0  0
    0.7500    1.2990    0.0000 C   0  0  0  0  0  0  0  0  0  0  0  0
   -0.7500    1.2990    0.0000 C   0  0  0  0  0  0  0  0  0  0  0  0
   -1.5000    0.0000    0.0000 C   0  0  0  0  0  0  0  0  0  0  0  0
   -3.0000    0.0000    0.0000 C   0  0  0  0  0  0  0  0  0  0  0  0
   -4.5000    0.0000    0.0000 F   0  0  0  0  0  0  0  0  0  0  0  0
   -3.0000    1.5000    0.0000 F   0  0  0  0  0  0  0  0  0  0  0  0
   -3.0000   -1.5000    0.0000 F   0  0  0  0  0  0  0  0  0  0  0  0
   -0.7500   -1.2990    0.0000 C   0  0  0  0  0  0  0  0  0  0  0  0
    0.8899   -3.9684    0.0000 C   0  0  0  0  0  0  0  0  0  0  0  0
   -0.5773   -4.2803    0.0000 O   0  0  0  0  0  0  0  0  0  0  0  0
  1  2  1  0
  2  3  1  0
  2  4  1  0
  4  5  1  0
  5  6  2  0
  5  7  1  0
  7  8  1  0
  8  9  2  0
  9 10  1  0
 10 11  2  0
 11 12  1  0
 12 13  1  0
 13 14  1  0
 13 15  1  0
 13 16  1  0
 12 17  2  0
  7 18  1  0
 18 19  2  0
 18  2  1  0
 17  8  1  0
M  END
>  <assay_chembl_id>  (778) 
CHEMBL4681685

>  <assay_description>  (778) 
Inhibition of wild-type androgen receptor in human LAPC4 cells assessed as inhibition of DHT-induced luciferase activity measured after 24 hrs by luciferase reporter assay

>  <parent_molecule_chembl_id>  (778) 
CHEMBL4781708

>  <canonical_smiles>  (778) 
CC1(C)NC(=O)N(c2cccc(C(F)(F)F)c2)C1=O

>  <standard_type>  (778) 
IC50

>  <standard_relation>  (778) 
=

>  <standard_value>  (778) 
6000.0

>  <standard_units>  (778) 
nM

>  <target_pref_name>  (778) 
Androgen Receptor

>  <target_chembl_id>  (778) 
CHEMBL1871

>  <target_organism>  (778) 
Homo sapiens

>  <pchembl_median>  (778) 
4.86

$$$$
CHEMBL4748557
     RDKit          2D

 29 31  0  0  0  0  0  0  0  0999 V2000
    4.7302   -3.7586    0.0000 C   0  0  0  0  0  0  0  0  0  0  0  0
    3.3037   -4.2221    0.0000 C   0  0  0  0  0  0  0  0  0  0  0  0
    3.9138   -5.5924    0.0000 C   0  0  0  0  0  0  0  0  0  0  0  0
    2.9918   -2.7549    0.0000 C   0  0  0  0  0  0  0  0  0  0  0  0
    3.9955   -1.6402    0.0000 O   0  0  0  0  0  0  0  0  0  0  0  0
    1.5000   -2.5981    0.0000 N   0  0  0  0  0  0  0  0  0  0  0  0
    0.7500   -1.2990    0.0000 C   0  0  0  0  0  0  0  0  0  0  0  0
    1.5000    0.0000    0.0000 C   0  0  0  0  0  0  0  0  0  0  0  0
    0.7500    1.2990    0.0000 C   0  0  0  0  0  0  0  0  0  0  0  0
   -0.7500    1.2990    0.0000 C   0  0  0  0  0  0  0  0  0  0  0  0
   -1.5000    2.5981    0.0000 F   0  0  0  0  0  0  0  0  0  0  0  0
   -1.5000    0.0000    0.0000 C   0  0  0  0  0  0  0  0  0  0  0  0
   -3.0000    0.0000    0.0000 C   0  0  0  0  0  0  0  0  0  0  0  0
   -4.5000    0.0000    0.0000 F   0  0  0  0  0  0  0  0  0  0  0  0
   -3.0000    1.5000    0.0000 F   0  0  0  0  0  0  0  0  0  0  0  0
   -3.0000   -1.5000    0.0000 F   0  0  0  0  0  0  0  0  0  0  0  0
   -0.7500   -1.2990    0.0000 C   0  0  0  0  0  0  0  0  0  0  0  0
    0.8899   -3.9684    0.0000 C   0  0  0  0  0  0  0  0  0  0  0  0
   -0.5773   -4.2803    0.0000 O   0  0  0  0  0  0  0  0  0  0  0  0
    2.0046   -4.9721    0.0000 N   0  0  0  0  0  0  0  0  0  0  0  0
    1.8478   -6.4639    0.0000 S   0  0  0  0  0  0  0  0  0  0  0  0
    3.3396   -6.6207    0.0000 O   0  0  0  0  0  0  0  0  0  0  0  0
    0.3560   -6.3071    0.0000 O   0  0  0  0  0  0  0  0  0  0  0  0
    1.6910   -7.9557    0.0000 C   0  0  0  0  0  0  0  0  0  0  0  0
    0.3207   -8.5658    0.0000 C   0  0  0  0  0  0  0  0  0  0  0  0
    0.1639  -10.0575    0.0000 C   0  0  0  0  0  0  0  0  0  0  0  0
    1.3774  -10.9392    0.0000 C   0  0  0  0  0  0  0  0  0  0  0  0
    2.7478  -10.3291    0.0000 C   0  0  0  0  0  0  0  0  0  0  0  0
    2.9046   -8.8373    0.0000 C   0  0  0  0  0  0  0  0  0  0  0  0
  1  2  1  0
  2  3  1  0
  2  4  1  0
  4  5  2  0
  4  6  1  0
  6  7  1  0
  7  8  2  0
  8  9  1  0
  9 10  2  0
 10 11  1  0
 10 12  1  0
 12 13  1  0
 13 14  1  0
 13 15  1  0
 13 16  1  0
 12 17  2  0
  6 18  1  0
 18 19  2  0
 18 20  1  0
 20 21  1  0
 21 22  2  0
 21 23  2  0
 21 24  1  0
 24 25  2  0
 25 26  1  0
 26 27  2  0
 27 28  1  0
 28 29  2  0
 20  2  1  0
 29 24  1  0
 17  7  1  0
M  END
>  <assay_chembl_id>  (779) 
CHEMBL4681685

>  <assay_description>  (779) 
Inhibition of wild-type androgen receptor in human LAPC4 cells assessed as inhibition of DHT-induced luciferase activity measured after 24 hrs by luciferase reporter assay

>  <parent_molecule_chembl_id>  (779) 
CHEMBL4748557

>  <canonical_smiles>  (779) 
CC1(C)C(=O)N(c2ccc(F)c(C(F)(F)F)c2)C(=O)N1S(=O)(=O)c1ccccc1

>  <standard_type>  (779) 
IC50

>  <standard_relation>  (779) 
=

>  <standard_value>  (779) 
4300.0

>  <standard_units>  (779) 
nM

>  <target_pref_name>  (779) 
Androgen Receptor

>  <target_chembl_id>  (779) 
CHEMBL1871

>  <target_organism>  (779) 
Homo sapiens

>  <pchembl_median>  (779) 
6.06

$$$$
CHEMBL4740944
     RDKit          2D

 24 25  0  0  0  0  0  0  0  0999 V2000
    4.7302   -3.7586    0.0000 C   0  0  0  0  0  0  0  0  0  0  0  0
    3.3037   -4.2221    0.0000 C   0  0  0  0  0  0  0  0  0  0  0  0
    3.9138   -5.5924    0.0000 C   0  0  0  0  0  0  0  0  0  0  0  0
    2.9918   -2.7549    0.0000 C   0  0  0  0  0  0  0  0  0  0  0  0
    3.9955   -1.6402    0.0000 O   0  0  0  0  0  0  0  0  0  0  0  0
    1.5000   -2.5981    0.0000 N   0  0  0  0  0  0  0  0  0  0  0  0
    0.7500   -1.2990    0.0000 C   0  0  0  0  0  0  0  0  0  0  0  0
    1.5000    0.0000    0.0000 C   0  0  0  0  0  0  0  0  0  0  0  0
    0.7500    1.2990    0.0000 C   0  0  0  0  0  0  0  0  0  0  0  0
   -0.7500    1.2990    0.0000 C   0  0  0  0  0  0  0  0  0  0  0  0
   -1.5000    2.5981    0.0000 F   0  0  0  0  0  0  0  0  0  0  0  0
   -1.5000    0.0000    0.0000 C   0  0  0  0  0  0  0  0  0  0  0  0
   -3.0000    0.0000    0.0000 C   0  0  0  0  0  0  0  0  0  0  0  0
   -4.5000    0.0000    0.0000 F   0  0  0  0  0  0  0  0  0  0  0  0
   -3.0000    1.5000    0.0000 F   0  0  0  0  0  0  0  0  0  0  0  0
   -3.0000   -1.5000    0.0000 F   0  0  0  0  0  0  0  0  0  0  0  0
   -0.7500   -1.2990    0.0000 C   0  0  0  0  0  0  0  0  0  0  0  0
    0.8899   -3.9684    0.0000 C   0  0  0  0  0  0  0  0  0  0  0  0
   -0.5773   -4.2803    0.0000 O   0  0  0  0  0  0  0  0  0  0  0  0
    2.0046   -4.9721    0.0000 N   0  0  0  0  0  0  0  0  0  0  0  0
    1.8478   -6.4639    0.0000 S   0  0  0  0  0  0  0  0  0  0  0  0
    1.6910   -7.9557    0.0000 C   0  0  0  0  0  0  0  0  0  0  0  0
    3.3396   -6.6207    0.0000 O   0  0  0  0  0  0  0  0  0  0  0  0
    0.3560   -6.3071    0.0000 O   0  0  0  0  0  0  0  0  0  0  0  0
  1  2  1  0
  2  3  1  0
  2  4  1  0
  4  5  2  0
  4  6  1  0
  6  7  1  0
  7  8  2  0
  8  9  1  0
  9 10  2  0
 10 11  1  0
 10 12  1  0
 12 13  1  0
 13 14  1  0
 13 15  1  0
 13 16  1  0
 12 17  2  0
  6 18  1  0
 18 19  2  0
 18 20  1  0
 20 21  1  0
 21 22  1  0
 21 23  2  0
 21 24  2  0
 20  2  1  0
 17  7  1  0
M  END
>  <assay_chembl_id>  (780) 
CHEMBL4681685

>  <assay_description>  (780) 
Inhibition of wild-type androgen receptor in human LAPC4 cells assessed as inhibition of DHT-induced luciferase activity measured after 24 hrs by luciferase reporter assay

>  <parent_molecule_chembl_id>  (780) 
CHEMBL4740944

>  <canonical_smiles>  (780) 
CC1(C)C(=O)N(c2ccc(F)c(C(F)(F)F)c2)C(=O)N1S(C)(=O)=O

>  <standard_type>  (780) 
IC50

>  <standard_relation>  (780) 
=

>  <standard_value>  (780) 
6300.0

>  <standard_units>  (780) 
nM

>  <target_pref_name>  (780) 
Androgen Receptor

>  <target_chembl_id>  (780) 
CHEMBL1871

>  <target_organism>  (780) 
Homo sapiens

>  <pchembl_median>  (780) 
4.41

$$$$
CHEMBL4786505
     RDKit          2D

 28 30  0  0  0  0  0  0  0  0999 V2000
    4.7302   -3.7586    0.0000 C   0  0  0  0  0  0  0  0  0  0  0  0
    3.3037   -4.2221    0.0000 C   0  0  0  0  0  0  0  0  0  0  0  0
    3.9138   -5.5924    0.0000 C   0  0  0  0  0  0  0  0  0  0  0  0
    2.9918   -2.7549    0.0000 C   0  0  0  0  0  0  0  0  0  0  0  0
    3.9955   -1.6402    0.0000 O   0  0  0  0  0  0  0  0  0  0  0  0
    1.5000   -2.5981    0.0000 N   0  0  0  0  0  0  0  0  0  0  0  0
    0.7500   -1.2990    0.0000 C   0  0  0  0  0  0  0  0  0  0  0  0
    1.5000    0.0000    0.0000 C   0  0  0  0  0  0  0  0  0  0  0  0
    0.7500    1.2990    0.0000 C   0  0  0  0  0  0  0  0  0  0  0  0
   -0.7500    1.2990    0.0000 C   0  0  0  0  0  0  0  0  0  0  0  0
   -1.5000    2.5981    0.0000 F   0  0  0  0  0  0  0  0  0  0  0  0
   -1.5000    0.0000    0.0000 C   0  0  0  0  0  0  0  0  0  0  0  0
   -3.0000    0.0000    0.0000 C   0  0  0  0  0  0  0  0  0  0  0  0
   -4.5000    0.0000    0.0000 F   0  0  0  0  0  0  0  0  0  0  0  0
   -3.0000    1.5000    0.0000 F   0  0  0  0  0  0  0  0  0  0  0  0
   -3.0000   -1.5000    0.0000 F   0  0  0  0  0  0  0  0  0  0  0  0
   -0.7500   -1.2990    0.0000 C   0  0  0  0  0  0  0  0  0  0  0  0
    0.8899   -3.9684    0.0000 C   0  0  0  0  0  0  0  0  0  0  0  0
   -0.5773   -4.2803    0.0000 O   0  0  0  0  0  0  0  0  0  0  0  0
    2.0046   -4.9721    0.0000 N   0  0  0  0  0  0  0  0  0  0  0  0
    1.8478   -6.4639    0.0000 C   0  0  0  0  0  0  0  0  0  0  0  0
    0.4775   -7.0740    0.0000 C   0  0  0  0  0  0  0  0  0  0  0  0
    0.3207   -8.5658    0.0000 C   0  0  0  0  0  0  0  0  0  0  0  0
   -1.0496   -9.1759    0.0000 C   0  0  0  0  0  0  0  0  0  0  0  0
   -1.2064  -10.6676    0.0000 C   0  0  0  0  0  0  0  0  0  0  0  0
    0.0071  -11.5493    0.0000 C   0  0  0  0  0  0  0  0  0  0  0  0
    1.3774  -10.9392    0.0000 C   0  0  0  0  0  0  0  0  0  0  0  0
    1.5342   -9.4474    0.0000 C   0  0  0  0  0  0  0  0  0  0  0  0
  1  2  1  0
  2  3  1  0
  2  4  1  0
  4  5  2  0
  4  6  1  0
  6  7  1  0
  7  8  2  0
  8  9  1  0
  9 10  2  0
 10 11  1  0
 10 12  1  0
 12 13  1  0
 13 14  1  0
 13 15  1  0
 13 16  1  0
 12 17  2  0
  6 18  1  0
 18 19  2  0
 18 20  1  0
 20 21  1  0
 21 22  1  0
 22 23  1  0
 23 24  2  0
 24 25  1  0
 25 26  2  0
 26 27  1  0
 27 28  2  0
 20  2  1  0
 28 23  1  0
 17  7  1  0
M  END
>  <assay_chembl_id>  (781) 
CHEMBL4681685

>  <assay_description>  (781) 
Inhibition of wild-type androgen receptor in human LAPC4 cells assessed as inhibition of DHT-induced luciferase activity measured after 24 hrs by luciferase reporter assay

>  <parent_molecule_chembl_id>  (781) 
CHEMBL4786505

>  <canonical_smiles>  (781) 
CC1(C)C(=O)N(c2ccc(F)c(C(F)(F)F)c2)C(=O)N1CCc1ccccc1

>  <standard_type>  (781) 
IC50

>  <standard_relation>  (781) 
=

>  <standard_value>  (781) 
2400.0

>  <standard_units>  (781) 
nM

>  <target_pref_name>  (781) 
Androgen Receptor

>  <target_chembl_id>  (781) 
CHEMBL1871

>  <target_organism>  (781) 
Homo sapiens

>  <pchembl_median>  (781) 
5.77

$$$$
CHEMBL4758277
     RDKit          2D

 23 24  0  0  0  0  0  0  0  0999 V2000
    4.7302   -3.7586    0.0000 C   0  0  0  0  0  0  0  0  0  0  0  0
    3.3037   -4.2221    0.0000 C   0  0  0  0  0  0  0  0  0  0  0  0
    3.9138   -5.5924    0.0000 C   0  0  0  0  0  0  0  0  0  0  0  0
    2.9918   -2.7549    0.0000 C   0  0  0  0  0  0  0  0  0  0  0  0
    3.9955   -1.6402    0.0000 O   0  0  0  0  0  0  0  0  0  0  0  0
    1.5000   -2.5981    0.0000 N   0  0  0  0  0  0  0  0  0  0  0  0
    0.7500   -1.2990    0.0000 C   0  0  0  0  0  0  0  0  0  0  0  0
    1.5000    0.0000    0.0000 C   0  0  0  0  0  0  0  0  0  0  0  0
    0.7500    1.2990    0.0000 C   0  0  0  0  0  0  0  0  0  0  0  0
   -0.7500    1.2990    0.0000 C   0  0  0  0  0  0  0  0  0  0  0  0
   -1.5000    2.5981    0.0000 F   0  0  0  0  0  0  0  0  0  0  0  0
   -1.5000    0.0000    0.0000 C   0  0  0  0  0  0  0  0  0  0  0  0
   -3.0000    0.0000    0.0000 C   0  0  0  0  0  0  0  0  0  0  0  0
   -4.5000    0.0000    0.0000 F   0  0  0  0  0  0  0  0  0  0  0  0
   -3.0000    1.5000    0.0000 F   0  0  0  0  0  0  0  0  0  0  0  0
   -3.0000   -1.5000    0.0000 F   0  0  0  0  0  0  0  0  0  0  0  0
   -0.7500   -1.2990    0.0000 C   0  0  0  0  0  0  0  0  0  0  0  0
    0.8899   -3.9684    0.0000 C   0  0  0  0  0  0  0  0  0  0  0  0
   -0.5773   -4.2803    0.0000 O   0  0  0  0  0  0  0  0  0  0  0  0
    2.0046   -4.9721    0.0000 N   0  0  0  0  0  0  0  0  0  0  0  0
    1.8478   -6.4639    0.0000 C   0  0  0  0  0  0  0  0  0  0  0  0
    0.4775   -7.0740    0.0000 C   0  0  0  0  0  0  0  0  0  0  0  0
   -0.8928   -7.6841    0.0000 N   0  0  0  0  0  0  0  0  0  0  0  0
  1  2  1  0
  2  3  1  0
  2  4  1  0
  4  5  2  0
  4  6  1  0
  6  7  1  0
  7  8  2  0
  8  9  1  0
  9 10  2  0
 10 11  1  0
 10 12  1  0
 12 13  1  0
 13 14  1  0
 13 15  1  0
 13 16  1  0
 12 17  2  0
  6 18  1  0
 18 19  2  0
 18 20  1  0
 20 21  1  0
 21 22  1  0
 22 23  3  0
 20  2  1  0
 17  7  1  0
M  END
>  <assay_chembl_id>  (782) 
CHEMBL4681685

>  <assay_description>  (782) 
Inhibition of wild-type androgen receptor in human LAPC4 cells assessed as inhibition of DHT-induced luciferase activity measured after 24 hrs by luciferase reporter assay

>  <parent_molecule_chembl_id>  (782) 
CHEMBL4758277

>  <canonical_smiles>  (782) 
CC1(C)C(=O)N(c2ccc(F)c(C(F)(F)F)c2)C(=O)N1CC#N

>  <standard_type>  (782) 
IC50

>  <standard_relation>  (782) 
=

>  <standard_value>  (782) 
290.0

>  <standard_units>  (782) 
nM

>  <target_pref_name>  (782) 
Androgen Receptor

>  <target_chembl_id>  (782) 
CHEMBL1871

>  <target_organism>  (782) 
Homo sapiens

>  <pchembl_median>  (782) 
5.77

$$$$
CHEMBL4799175
     RDKit          2D

 22 23  0  0  0  0  0  0  0  0999 V2000
    4.8308   -6.3240    0.0000 C   0  0  0  0  0  0  0  0  0  0  0  0
    4.6740   -4.8322    0.0000 C   0  0  0  0  0  0  0  0  0  0  0  0
    3.3037   -4.2221    0.0000 N   0  0  0  0  0  0  0  0  0  0  0  0
    2.9918   -2.7549    0.0000 C   0  0  0  0  0  0  0  0  0  0  0  0
    3.9955   -1.6402    0.0000 O   0  0  0  0  0  0  0  0  0  0  0  0
    1.5000   -2.5981    0.0000 N   0  0  0  0  0  0  0  0  0  0  0  0
    0.7500   -1.2990    0.0000 C   0  0  0  0  0  0  0  0  0  0  0  0
    1.5000    0.0000    0.0000 C   0  0  0  0  0  0  0  0  0  0  0  0
    0.7500    1.2990    0.0000 C   0  0  0  0  0  0  0  0  0  0  0  0
   -0.7500    1.2990    0.0000 C   0  0  0  0  0  0  0  0  0  0  0  0
   -1.5000    2.5981    0.0000 F   0  0  0  0  0  0  0  0  0  0  0  0
   -1.5000    0.0000    0.0000 C   0  0  0  0  0  0  0  0  0  0  0  0
   -3.0000    0.0000    0.0000 C   0  0  0  0  0  0  0  0  0  0  0  0
   -4.5000    0.0000    0.0000 F   0  0  0  0  0  0  0  0  0  0  0  0
   -3.0000    1.5000    0.0000 F   0  0  0  0  0  0  0  0  0  0  0  0
   -3.0000   -1.5000    0.0000 F   0  0  0  0  0  0  0  0  0  0  0  0
   -0.7500   -1.2990    0.0000 C   0  0  0  0  0  0  0  0  0  0  0  0
    0.8899   -3.9684    0.0000 C   0  0  0  0  0  0  0  0  0  0  0  0
   -0.5773   -4.2803    0.0000 O   0  0  0  0  0  0  0  0  0  0  0  0
    2.0046   -4.9721    0.0000 C   0  0  0  0  0  0  0  0  0  0  0  0
    2.8863   -6.1856    0.0000 C   0  0  0  0  0  0  0  0  0  0  0  0
    0.8899   -5.9758    0.0000 C   0  0  0  0  0  0  0  0  0  0  0  0
  1  2  1  0
  2  3  1  0
  3  4  1  0
  4  5  2  0
  4  6  1  0
  6  7  1  0
  7  8  2  0
  8  9  1  0
  9 10  2  0
 10 11  1  0
 10 12  1  0
 12 13  1  0
 13 14  1  0
 13 15  1  0
 13 16  1  0
 12 17  2  0
  6 18  1  0
 18 19  2  0
 18 20  1  0
 20 21  1  0
 20 22  1  0
 20  3  1  0
 17  7  1  0
M  END
>  <assay_chembl_id>  (783) 
CHEMBL4681685

>  <assay_description>  (783) 
Inhibition of wild-type androgen receptor in human LAPC4 cells assessed as inhibition of DHT-induced luciferase activity measured after 24 hrs by luciferase reporter assay

>  <parent_molecule_chembl_id>  (783) 
CHEMBL4799175

>  <canonical_smiles>  (783) 
CCN1C(=O)N(c2ccc(F)c(C(F)(F)F)c2)C(=O)C1(C)C

>  <standard_type>  (783) 
IC50

>  <standard_relation>  (783) 
=

>  <standard_value>  (783) 
140.0

>  <standard_units>  (783) 
nM

>  <target_pref_name>  (783) 
Androgen Receptor

>  <target_chembl_id>  (783) 
CHEMBL1871

>  <target_organism>  (783) 
Homo sapiens

>  <pchembl_median>  (783) 
6.02

$$$$
CHEMBL4778974
     RDKit          2D

 21 22  0  0  0  0  0  0  0  0999 V2000
    4.6740   -4.8322    0.0000 C   0  0  0  0  0  0  0  0  0  0  0  0
    3.3037   -4.2221    0.0000 N   0  0  0  0  0  0  0  0  0  0  0  0
    2.9918   -2.7549    0.0000 C   0  0  0  0  0  0  0  0  0  0  0  0
    3.9955   -1.6402    0.0000 O   0  0  0  0  0  0  0  0  0  0  0  0
    1.5000   -2.5981    0.0000 N   0  0  0  0  0  0  0  0  0  0  0  0
    0.7500   -1.2990    0.0000 C   0  0  0  0  0  0  0  0  0  0  0  0
    1.5000    0.0000    0.0000 C   0  0  0  0  0  0  0  0  0  0  0  0
    0.7500    1.2990    0.0000 C   0  0  0  0  0  0  0  0  0  0  0  0
   -0.7500    1.2990    0.0000 C   0  0  0  0  0  0  0  0  0  0  0  0
   -1.5000    2.5981    0.0000 F   0  0  0  0  0  0  0  0  0  0  0  0
   -1.5000    0.0000    0.0000 C   0  0  0  0  0  0  0  0  0  0  0  0
   -3.0000    0.0000    0.0000 C   0  0  0  0  0  0  0  0  0  0  0  0
   -4.5000    0.0000    0.0000 F   0  0  0  0  0  0  0  0  0  0  0  0
   -3.0000    1.5000    0.0000 F   0  0  0  0  0  0  0  0  0  0  0  0
   -3.0000   -1.5000    0.0000 F   0  0  0  0  0  0  0  0  0  0  0  0
   -0.7500   -1.2990    0.0000 C   0  0  0  0  0  0  0  0  0  0  0  0
    0.8899   -3.9684    0.0000 C   0  0  0  0  0  0  0  0  0  0  0  0
   -0.5773   -4.2803    0.0000 O   0  0  0  0  0  0  0  0  0  0  0  0
    2.0046   -4.9721    0.0000 C   0  0  0  0  0  0  0  0  0  0  0  0
    2.8863   -6.1856    0.0000 C   0  0  0  0  0  0  0  0  0  0  0  0
    0.8899   -5.9758    0.0000 C   0  0  0  0  0  0  0  0  0  0  0  0
  1  2  1  0
  2  3  1  0
  3  4  2  0
  3  5  1  0
  5  6  1  0
  6  7  2  0
  7  8  1  0
  8  9  2  0
  9 10  1  0
  9 11  1  0
 11 12  1  0
 12 13  1  0
 12 14  1  0
 12 15  1  0
 11 16  2  0
  5 17  1  0
 17 18  2  0
 17 19  1  0
 19 20  1  0
 19 21  1  0
 19  2  1  0
 16  6  1  0
M  END
>  <assay_chembl_id>  (784) 
CHEMBL4681685

>  <assay_description>  (784) 
Inhibition of wild-type androgen receptor in human LAPC4 cells assessed as inhibition of DHT-induced luciferase activity measured after 24 hrs by luciferase reporter assay

>  <parent_molecule_chembl_id>  (784) 
CHEMBL4778974

>  <canonical_smiles>  (784) 
CN1C(=O)N(c2ccc(F)c(C(F)(F)F)c2)C(=O)C1(C)C

>  <standard_type>  (784) 
IC50

>  <standard_relation>  (784) 
=

>  <standard_value>  (784) 
1300.0

>  <standard_units>  (784) 
nM

>  <target_pref_name>  (784) 
Androgen Receptor

>  <target_chembl_id>  (784) 
CHEMBL1871

>  <target_organism>  (784) 
Homo sapiens

>  <pchembl_median>  (784) 
7.51

$$$$
CHEMBL4465426
     RDKit          2D

 20 21  0  0  0  0  0  0  0  0999 V2000
    2.8863   -6.1856    0.0000 C   0  0  0  0  0  0  0  0  0  0  0  0
    2.0046   -4.9721    0.0000 C   0  0  0  0  0  0  0  0  0  0  0  0
    0.8899   -5.9758    0.0000 C   0  0  0  0  0  0  0  0  0  0  0  0
    3.3037   -4.2221    0.0000 N   0  0  0  0  0  0  0  0  0  0  0  0
    2.9918   -2.7549    0.0000 C   0  0  0  0  0  0  0  0  0  0  0  0
    3.9955   -1.6402    0.0000 O   0  0  0  0  0  0  0  0  0  0  0  0
    1.5000   -2.5981    0.0000 N   0  0  0  0  0  0  0  0  0  0  0  0
    0.7500   -1.2990    0.0000 C   0  0  0  0  0  0  0  0  0  0  0  0
    1.5000    0.0000    0.0000 C   0  0  0  0  0  0  0  0  0  0  0  0
    0.7500    1.2990    0.0000 C   0  0  0  0  0  0  0  0  0  0  0  0
   -0.7500    1.2990    0.0000 C   0  0  0  0  0  0  0  0  0  0  0  0
   -1.5000    2.5981    0.0000 F   0  0  0  0  0  0  0  0  0  0  0  0
   -1.5000    0.0000    0.0000 C   0  0  0  0  0  0  0  0  0  0  0  0
   -3.0000    0.0000    0.0000 C   0  0  0  0  0  0  0  0  0  0  0  0
   -4.5000    0.0000    0.0000 F   0  0  0  0  0  0  0  0  0  0  0  0
   -3.0000    1.5000    0.0000 F   0  0  0  0  0  0  0  0  0  0  0  0
   -3.0000   -1.5000    0.0000 F   0  0  0  0  0  0  0  0  0  0  0  0
   -0.7500   -1.2990    0.0000 C   0  0  0  0  0  0  0  0  0  0  0  0
    0.8899   -3.9684    0.0000 C   0  0  0  0  0  0  0  0  0  0  0  0
   -0.5773   -4.2803    0.0000 O   0  0  0  0  0  0  0  0  0  0  0  0
  1  2  1  0
  2  3  1  0
  2  4  1  0
  4  5  1  0
  5  6  2  0
  5  7  1  0
  7  8  1  0
  8  9  2  0
  9 10  1  0
 10 11  2  0
 11 12  1  0
 11 13  1  0
 13 14  1  0
 14 15  1  0
 14 16  1  0
 14 17  1  0
 13 18  2  0
  7 19  1  0
 19 20  2  0
 19  2  1  0
 18  8  1  0
M  END
>  <assay_chembl_id>  (785) 
CHEMBL4681685

>  <assay_description>  (785) 
Inhibition of wild-type androgen receptor in human LAPC4 cells assessed as inhibition of DHT-induced luciferase activity measured after 24 hrs by luciferase reporter assay

>  <parent_molecule_chembl_id>  (785) 
CHEMBL4465426

>  <canonical_smiles>  (785) 
CC1(C)NC(=O)N(c2ccc(F)c(C(F)(F)F)c2)C1=O

>  <standard_type>  (785) 
IC50

>  <standard_relation>  (785) 
=

>  <standard_value>  (785) 
4400.0

>  <standard_units>  (785) 
nM

>  <target_pref_name>  (785) 
Androgen Receptor

>  <target_chembl_id>  (785) 
CHEMBL1871

>  <target_organism>  (785) 
Homo sapiens

>  <pchembl_median>  (785) 
7.62

$$$$
CHEMBL4797715
     RDKit          2D

 24 28  0  0  0  0  0  0  0  0999 V2000
   -1.5000   -7.7942    0.0000 Cl  0  0  0  0  0  0  0  0  0  0  0  0
   -3.0000   -7.7942    0.0000 C   0  0  0  0  0  0  0  0  0  0  0  0
   -3.7500   -9.0933    0.0000 C   0  0  0  0  0  0  0  0  0  0  0  0
   -5.2500   -9.0933    0.0000 C   0  0  0  0  0  0  0  0  0  0  0  0
   -6.0000   -7.7942    0.0000 C   0  0  0  0  0  0  0  0  0  0  0  0
   -5.2500   -6.4952    0.0000 C   0  0  0  0  0  0  0  0  0  0  0  0
   -3.7500   -6.4952    0.0000 C   0  0  0  0  0  0  0  0  0  0  0  0
   -3.0000   -5.1962    0.0000 C   0  0  0  0  0  0  0  0  0  0  0  0
   -1.5000   -5.1962    0.0000 N   0  0  0  0  0  0  0  0  0  0  0  0
   -0.7500   -3.8971    0.0000 C   0  0  0  0  0  0  0  0  0  0  0  0
    0.7500   -3.8971    0.0000 C   0  0  0  0  0  0  0  0  0  0  0  0
    1.5000   -2.5981    0.0000 C   0  0  0  0  0  0  0  0  0  0  0  0
    0.7500   -1.2990    0.0000 C   0  0  0  0  0  0  0  0  0  0  0  0
    1.5000    0.0000    0.0000 C   0  0  0  0  0  0  0  0  0  0  0  0
    0.7500    1.2990    0.0000 C   0  0  0  0  0  0  0  0  0  0  0  0
   -0.7500    1.2990    0.0000 C   0  0  0  0  0  0  0  0  0  0  0  0
   -1.5000    0.0000    0.0000 C   0  0  0  0  0  0  0  0  0  0  0  0
   -0.7500   -1.2990    0.0000 C   0  0  0  0  0  0  0  0  0  0  0  0
   -1.5000   -2.5981    0.0000 C   0  0  0  0  0  0  0  0  0  0  0  0
   -3.0000   -2.5981    0.0000 C   0  0  0  0  0  0  0  0  0  0  0  0
   -4.0037   -1.4834    0.0000 C   0  0  0  0  0  0  0  0  0  0  0  0
   -5.3740   -2.0935    0.0000 C   0  0  0  0  0  0  0  0  0  0  0  0
   -5.2172   -3.5852    0.0000 C   0  0  0  0  0  0  0  0  0  0  0  0
   -3.7500   -3.8971    0.0000 C   0  0  0  0  0  0  0  0  0  0  0  0
  1  2  1  0
  2  3  2  0
  3  4  1  0
  4  5  2  0
  5  6  1  0
  6  7  2  0
  7  8  1  0
  8  9  1  0
  9 10  1  0
 10 11  2  0
 11 12  1  0
 12 13  2  0
 13 14  1  0
 14 15  2  0
 15 16  1  0
 16 17  2  0
 17 18  1  0
 18 19  2  0
 19 20  1  0
 20 21  1  0
 21 22  2  0
 22 23  1  0
 23 24  1  0
  7  2  1  0
 24  8  1  0
 19 10  1  0
 24 20  1  0
 18 13  1  0
M  END
>  <assay_chembl_id>  (786) 
CHEMBL4685675

>  <assay_description>  (786) 
Displacement of fluormone-AL green from GST-tagged androgen receptor LBD (unknown origin) measured after 4 hrs by fluorescence polarization assay

>  <parent_molecule_chembl_id>  (786) 
CHEMBL4797715

>  <canonical_smiles>  (786) 
Clc1ccccc1C1Nc2ccc3ccccc3c2C2C=CCC21

>  <standard_type>  (786) 
IC50

>  <standard_relation>  (786) 
=

>  <standard_value>  (786) 
4020.0

>  <standard_units>  (786) 
nM

>  <target_pref_name>  (786) 
Androgen Receptor

>  <target_chembl_id>  (786) 
CHEMBL1871

>  <target_organism>  (786) 
Homo sapiens

>  <pchembl_median>  (786) 
7.37

$$$$
CHEMBL4798606
     RDKit          2D

 24 28  0  0  0  0  0  0  0  0999 V2000
   -1.5000   -7.7942    0.0000 F   0  0  0  0  0  0  0  0  0  0  0  0
   -3.0000   -7.7942    0.0000 C   0  0  0  0  0  0  0  0  0  0  0  0
   -3.7500   -9.0933    0.0000 C   0  0  0  0  0  0  0  0  0  0  0  0
   -5.2500   -9.0933    0.0000 C   0  0  0  0  0  0  0  0  0  0  0  0
   -6.0000   -7.7942    0.0000 C   0  0  0  0  0  0  0  0  0  0  0  0
   -5.2500   -6.4952    0.0000 C   0  0  0  0  0  0  0  0  0  0  0  0
   -3.7500   -6.4952    0.0000 C   0  0  0  0  0  0  0  0  0  0  0  0
   -3.0000   -5.1962    0.0000 C   0  0  0  0  0  0  0  0  0  0  0  0
   -1.5000   -5.1962    0.0000 N   0  0  0  0  0  0  0  0  0  0  0  0
   -0.7500   -3.8971    0.0000 C   0  0  0  0  0  0  0  0  0  0  0  0
    0.7500   -3.8971    0.0000 C   0  0  0  0  0  0  0  0  0  0  0  0
    1.5000   -2.5981    0.0000 C   0  0  0  0  0  0  0  0  0  0  0  0
    0.7500   -1.2990    0.0000 C   0  0  0  0  0  0  0  0  0  0  0  0
    1.5000    0.0000    0.0000 C   0  0  0  0  0  0  0  0  0  0  0  0
    0.7500    1.2990    0.0000 C   0  0  0  0  0  0  0  0  0  0  0  0
   -0.7500    1.2990    0.0000 C   0  0  0  0  0  0  0  0  0  0  0  0
   -1.5000    0.0000    0.0000 C   0  0  0  0  0  0  0  0  0  0  0  0
   -0.7500   -1.2990    0.0000 C   0  0  0  0  0  0  0  0  0  0  0  0
   -1.5000   -2.5981    0.0000 C   0  0  0  0  0  0  0  0  0  0  0  0
   -3.0000   -2.5981    0.0000 C   0  0  0  0  0  0  0  0  0  0  0  0
   -4.0037   -1.4834    0.0000 C   0  0  0  0  0  0  0  0  0  0  0  0
   -5.3740   -2.0935    0.0000 C   0  0  0  0  0  0  0  0  0  0  0  0
   -5.2172   -3.5852    0.0000 C   0  0  0  0  0  0  0  0  0  0  0  0
   -3.7500   -3.8971    0.0000 C   0  0  0  0  0  0  0  0  0  0  0  0
  1  2  1  0
  2  3  2  0
  3  4  1  0
  4  5  2  0
  5  6  1  0
  6  7  2  0
  7  8  1  0
  8  9  1  0
  9 10  1  0
 10 11  2  0
 11 12  1  0
 12 13  2  0
 13 14  1  0
 14 15  2  0
 15 16  1  0
 16 17  2  0
 17 18  1  0
 18 19  2  0
 19 20  1  0
 20 21  1  0
 21 22  2  0
 22 23  1  0
 23 24  1  0
  7  2  1  0
 24  8  1  0
 19 10  1  0
 24 20  1  0
 18 13  1  0
M  END
>  <assay_chembl_id>  (787) 
CHEMBL4685676

>  <assay_description>  (787) 
Antagonist activity at androgen receptor in human LNCaP cells transfected with ARR2 PB-eGFP assessed as inhibition of DHT-induced transcriptional activity measured after 3 days by fluorescence assay

>  <parent_molecule_chembl_id>  (787) 
CHEMBL4798606

>  <canonical_smiles>  (787) 
Fc1ccccc1C1Nc2ccc3ccccc3c2C2C=CCC21

>  <standard_type>  (787) 
IC50

>  <standard_relation>  (787) 
=

>  <standard_value>  (787) 
220.0

>  <standard_units>  (787) 
nM

>  <target_pref_name>  (787) 
Androgen Receptor

>  <target_chembl_id>  (787) 
CHEMBL1871

>  <target_organism>  (787) 
Homo sapiens

>  <pchembl_median>  (787) 
7.23

$$$$
CHEMBL4760141
     RDKit          2D

 24 28  0  0  0  0  0  0  0  0999 V2000
   -6.0000  -10.3923    0.0000 Br  0  0  0  0  0  0  0  0  0  0  0  0
   -5.2500   -9.0933    0.0000 C   0  0  0  0  0  0  0  0  0  0  0  0
   -6.0000   -7.7942    0.0000 C   0  0  0  0  0  0  0  0  0  0  0  0
   -5.2500   -6.4952    0.0000 C   0  0  0  0  0  0  0  0  0  0  0  0
   -3.7500   -6.4952    0.0000 C   0  0  0  0  0  0  0  0  0  0  0  0
   -3.0000   -5.1962    0.0000 C   0  0  0  0  0  0  0  0  0  0  0  0
   -1.5000   -5.1962    0.0000 N   0  0  0  0  0  0  0  0  0  0  0  0
   -0.7500   -3.8971    0.0000 C   0  0  0  0  0  0  0  0  0  0  0  0
    0.7500   -3.8971    0.0000 C   0  0  0  0  0  0  0  0  0  0  0  0
    1.5000   -2.5981    0.0000 C   0  0  0  0  0  0  0  0  0  0  0  0
    0.7500   -1.2990    0.0000 C   0  0  0  0  0  0  0  0  0  0  0  0
    1.5000    0.0000    0.0000 C   0  0  0  0  0  0  0  0  0  0  0  0
    0.7500    1.2990    0.0000 C   0  0  0  0  0  0  0  0  0  0  0  0
   -0.7500    1.2990    0.0000 C   0  0  0  0  0  0  0  0  0  0  0  0
   -1.5000    0.0000    0.0000 C   0  0  0  0  0  0  0  0  0  0  0  0
   -0.7500   -1.2990    0.0000 C   0  0  0  0  0  0  0  0  0  0  0  0
   -1.5000   -2.5981    0.0000 C   0  0  0  0  0  0  0  0  0  0  0  0
   -3.0000   -2.5981    0.0000 C   0  0  0  0  0  0  0  0  0  0  0  0
   -4.0037   -1.4834    0.0000 C   0  0  0  0  0  0  0  0  0  0  0  0
   -5.3740   -2.0935    0.0000 C   0  0  0  0  0  0  0  0  0  0  0  0
   -5.2172   -3.5852    0.0000 C   0  0  0  0  0  0  0  0  0  0  0  0
   -3.7500   -3.8971    0.0000 C   0  0  0  0  0  0  0  0  0  0  0  0
   -3.0000   -7.7942    0.0000 C   0  0  0  0  0  0  0  0  0  0  0  0
   -3.7500   -9.0933    0.0000 C   0  0  0  0  0  0  0  0  0  0  0  0
  1  2  1  0
  2  3  2  0
  3  4  1  0
  4  5  2  0
  5  6  1  0
  6  7  1  0
  7  8  1  0
  8  9  2  0
  9 10  1  0
 10 11  2  0
 11 12  1  0
 12 13  2  0
 13 14  1  0
 14 15  2  0
 15 16  1  0
 16 17  2  0
 17 18  1  0
 18 19  1  0
 19 20  2  0
 20 21  1  0
 21 22  1  0
  5 23  1  0
 23 24  2  0
 24  2  1  0
 22  6  1  0
 17  8  1  0
 22 18  1  0
 16 11  1  0
M  END
>  <assay_chembl_id>  (788) 
CHEMBL4685676

>  <assay_description>  (788) 
Antagonist activity at androgen receptor in human LNCaP cells transfected with ARR2 PB-eGFP assessed as inhibition of DHT-induced transcriptional activity measured after 3 days by fluorescence assay

>  <parent_molecule_chembl_id>  (788) 
CHEMBL4760141

>  <canonical_smiles>  (788) 
Brc1ccc(C2Nc3ccc4ccccc4c3C3C=CCC32)cc1

>  <standard_type>  (788) 
IC50

>  <standard_relation>  (788) 
=

>  <standard_value>  (788) 
150.0

>  <standard_units>  (788) 
nM

>  <target_pref_name>  (788) 
Androgen Receptor

>  <target_chembl_id>  (788) 
CHEMBL1871

>  <target_organism>  (788) 
Homo sapiens

>  <pchembl_median>  (788) 
7.29

$$$$
CHEMBL4790160
     RDKit          2D

 22 25  0  0  0  0  0  0  0  0999 V2000
   -3.0000  -10.3923    0.0000 C   0  0  0  0  0  0  0  0  0  0  0  0
   -3.7500   -9.0933    0.0000 C   0  0  0  0  0  0  0  0  0  0  0  0
   -3.0000   -7.7942    0.0000 O   0  0  0  0  0  0  0  0  0  0  0  0
   -3.7500   -6.4952    0.0000 C   0  0  0  0  0  0  0  0  0  0  0  0
   -5.2500   -6.4952    0.0000 O   0  0  0  0  0  0  0  0  0  0  0  0
   -3.0000   -5.1962    0.0000 C   0  0  0  0  0  0  0  0  0  0  0  0
   -1.5000   -5.1962    0.0000 N   0  0  0  0  0  0  0  0  0  0  0  0
   -0.7500   -3.8971    0.0000 C   0  0  0  0  0  0  0  0  0  0  0  0
    0.7500   -3.8971    0.0000 C   0  0  0  0  0  0  0  0  0  0  0  0
    1.5000   -2.5981    0.0000 C   0  0  0  0  0  0  0  0  0  0  0  0
    0.7500   -1.2990    0.0000 C   0  0  0  0  0  0  0  0  0  0  0  0
    1.5000    0.0000    0.0000 C   0  0  0  0  0  0  0  0  0  0  0  0
    0.7500    1.2990    0.0000 C   0  0  0  0  0  0  0  0  0  0  0  0
   -0.7500    1.2990    0.0000 C   0  0  0  0  0  0  0  0  0  0  0  0
   -1.5000    0.0000    0.0000 C   0  0  0  0  0  0  0  0  0  0  0  0
   -0.7500   -1.2990    0.0000 C   0  0  0  0  0  0  0  0  0  0  0  0
   -1.5000   -2.5981    0.0000 C   0  0  0  0  0  0  0  0  0  0  0  0
   -3.0000   -2.5981    0.0000 C   0  0  0  0  0  0  0  0  0  0  0  0
   -4.0037   -1.4834    0.0000 C   0  0  0  0  0  0  0  0  0  0  0  0
   -5.3740   -2.0935    0.0000 C   0  0  0  0  0  0  0  0  0  0  0  0
   -5.2172   -3.5852    0.0000 C   0  0  0  0  0  0  0  0  0  0  0  0
   -3.7500   -3.8971    0.0000 C   0  0  0  0  0  0  0  0  0  0  0  0
  1  2  1  0
  2  3  1  0
  3  4  1  0
  4  5  2  0
  4  6  1  0
  6  7  1  0
  7  8  1  0
  8  9  2  0
  9 10  1  0
 10 11  2  0
 11 12  1  0
 12 13  2  0
 13 14  1  0
 14 15  2  0
 15 16  1  0
 16 17  2  0
 17 18  1  0
 18 19  1  0
 19 20  2  0
 20 21  1  0
 21 22  1  0
 22  6  1  0
 17  8  1  0
 22 18  1  0
 16 11  1  0
M  END
>  <assay_chembl_id>  (789) 
CHEMBL4685676

>  <assay_description>  (789) 
Antagonist activity at androgen receptor in human LNCaP cells transfected with ARR2 PB-eGFP assessed as inhibition of DHT-induced transcriptional activity measured after 3 days by fluorescence assay

>  <parent_molecule_chembl_id>  (789) 
CHEMBL4790160

>  <canonical_smiles>  (789) 
CCOC(=O)C1Nc2ccc3ccccc3c2C2C=CCC12

>  <standard_type>  (789) 
IC50

>  <standard_relation>  (789) 
=

>  <standard_value>  (789) 
820.0

>  <standard_units>  (789) 
nM

>  <target_pref_name>  (789) 
Androgen Receptor

>  <target_chembl_id>  (789) 
CHEMBL1871

>  <target_organism>  (789) 
Homo sapiens

>  <pchembl_median>  (789) 
7.64

$$$$
CHEMBL4796332
     RDKit          2D

 24 28  0  0  0  0  0  0  0  0999 V2000
   -6.0000  -10.3923    0.0000 Cl  0  0  0  0  0  0  0  0  0  0  0  0
   -5.2500   -9.0933    0.0000 C   0  0  0  0  0  0  0  0  0  0  0  0
   -6.0000   -7.7942    0.0000 C   0  0  0  0  0  0  0  0  0  0  0  0
   -5.2500   -6.4952    0.0000 C   0  0  0  0  0  0  0  0  0  0  0  0
   -3.7500   -6.4952    0.0000 C   0  0  0  0  0  0  0  0  0  0  0  0
   -3.0000   -5.1962    0.0000 C   0  0  0  0  0  0  0  0  0  0  0  0
   -1.5000   -5.1962    0.0000 N   0  0  0  0  0  0  0  0  0  0  0  0
   -0.7500   -3.8971    0.0000 C   0  0  0  0  0  0  0  0  0  0  0  0
    0.7500   -3.8971    0.0000 C   0  0  0  0  0  0  0  0  0  0  0  0
    1.5000   -2.5981    0.0000 C   0  0  0  0  0  0  0  0  0  0  0  0
    0.7500   -1.2990    0.0000 C   0  0  0  0  0  0  0  0  0  0  0  0
    1.5000    0.0000    0.0000 C   0  0  0  0  0  0  0  0  0  0  0  0
    0.7500    1.2990    0.0000 C   0  0  0  0  0  0  0  0  0  0  0  0
   -0.7500    1.2990    0.0000 C   0  0  0  0  0  0  0  0  0  0  0  0
   -1.5000    0.0000    0.0000 C   0  0  0  0  0  0  0  0  0  0  0  0
   -0.7500   -1.2990    0.0000 C   0  0  0  0  0  0  0  0  0  0  0  0
   -1.5000   -2.5981    0.0000 C   0  0  0  0  0  0  0  0  0  0  0  0
   -3.0000   -2.5981    0.0000 C   0  0  0  0  0  0  0  0  0  0  0  0
   -4.0037   -1.4834    0.0000 C   0  0  0  0  0  0  0  0  0  0  0  0
   -5.3740   -2.0935    0.0000 C   0  0  0  0  0  0  0  0  0  0  0  0
   -5.2172   -3.5852    0.0000 C   0  0  0  0  0  0  0  0  0  0  0  0
   -3.7500   -3.8971    0.0000 C   0  0  0  0  0  0  0  0  0  0  0  0
   -3.0000   -7.7942    0.0000 C   0  0  0  0  0  0  0  0  0  0  0  0
   -3.7500   -9.0933    0.0000 C   0  0  0  0  0  0  0  0  0  0  0  0
  1  2  1  0
  2  3  2  0
  3  4  1  0
  4  5  2  0
  5  6  1  0
  6  7  1  0
  7  8  1  0
  8  9  2  0
  9 10  1  0
 10 11  2  0
 11 12  1  0
 12 13  2  0
 13 14  1  0
 14 15  2  0
 15 16  1  0
 16 17  2  0
 17 18  1  0
 18 19  1  0
 19 20  2  0
 20 21  1  0
 21 22  1  0
  5 23  1  0
 23 24  2  0
 24  2  1  0
 22  6  1  0
 17  8  1  0
 22 18  1  0
 16 11  1  0
M  END
>  <assay_chembl_id>  (790) 
CHEMBL4685676

>  <assay_description>  (790) 
Antagonist activity at androgen receptor in human LNCaP cells transfected with ARR2 PB-eGFP assessed as inhibition of DHT-induced transcriptional activity measured after 3 days by fluorescence assay

>  <parent_molecule_chembl_id>  (790) 
CHEMBL4796332

>  <canonical_smiles>  (790) 
Clc1ccc(C2Nc3ccc4ccccc4c3C3C=CCC32)cc1

>  <standard_type>  (790) 
IC50

>  <standard_relation>  (790) 
=

>  <standard_value>  (790) 
1920.0

>  <standard_units>  (790) 
nM

>  <target_pref_name>  (790) 
Androgen Receptor

>  <target_chembl_id>  (790) 
CHEMBL1871

>  <target_organism>  (790) 
Homo sapiens

>  <pchembl_median>  (790) 
7.39

$$$$
CHEMBL4798254
     RDKit          2D

 26 30  0  0  0  0  0  0  0  0999 V2000
   -6.0000  -10.3923    0.0000 Cl  0  0  0  0  0  0  0  0  0  0  0  0
   -5.2500   -9.0933    0.0000 C   0  0  0  0  0  0  0  0  0  0  0  0
   -6.0000   -7.7942    0.0000 C   0  0  0  0  0  0  0  0  0  0  0  0
   -5.2500   -6.4952    0.0000 C   0  0  0  0  0  0  0  0  0  0  0  0
   -3.7500   -6.4952    0.0000 C   0  0  0  0  0  0  0  0  0  0  0  0
   -3.0000   -5.1962    0.0000 C   0  0  0  0  0  0  0  0  0  0  0  0
   -1.5000   -5.1962    0.0000 N   0  0  0  0  0  0  0  0  0  0  0  0
   -0.7500   -3.8971    0.0000 C   0  0  0  0  0  0  0  0  0  0  0  0
    0.7500   -3.8971    0.0000 C   0  0  0  0  0  0  0  0  0  0  0  0
    1.5000   -2.5981    0.0000 C   0  0  0  0  0  0  0  0  0  0  0  0
    0.7500   -1.2990    0.0000 C   0  0  0  0  0  0  0  0  0  0  0  0
    1.5000    0.0000    0.0000 C   0  0  0  0  0  0  0  0  0  0  0  0
    0.7500    1.2990    0.0000 C   0  0  0  0  0  0  0  0  0  0  0  0
   -0.7500    1.2990    0.0000 C   0  0  0  0  0  0  0  0  0  0  0  0
   -1.5000    0.0000    0.0000 C   0  0  0  0  0  0  0  0  0  0  0  0
   -0.7500   -1.2990    0.0000 C   0  0  0  0  0  0  0  0  0  0  0  0
   -1.5000   -2.5981    0.0000 C   0  0  0  0  0  0  0  0  0  0  0  0
   -3.0000   -2.5981    0.0000 C   0  0  0  0  0  0  0  0  0  0  0  0
   -3.7500   -1.2990    0.0000 O   0  0  0  0  0  0  0  0  0  0  0  0
   -5.2500   -1.2990    0.0000 C   0  0  0  0  0  0  0  0  0  0  0  0
   -6.0000   -2.5981    0.0000 C   0  0  0  0  0  0  0  0  0  0  0  0
   -5.2500   -3.8971    0.0000 C   0  0  0  0  0  0  0  0  0  0  0  0
   -3.7500   -3.8971    0.0000 C   0  0  0  0  0  0  0  0  0  0  0  0
   -3.0000   -7.7942    0.0000 C   0  0  0  0  0  0  0  0  0  0  0  0
   -1.5000   -7.7942    0.0000 Cl  0  0  0  0  0  0  0  0  0  0  0  0
   -3.7500   -9.0933    0.0000 C   0  0  0  0  0  0  0  0  0  0  0  0
  1  2  1  0
  2  3  2  0
  3  4  1  0
  4  5  2  0
  5  6  1  0
  6  7  1  0
  7  8  1  0
  8  9  2  0
  9 10  1  0
 10 11  2  0
 11 12  1  0
 12 13  2  0
 13 14  1  0
 14 15  2  0
 15 16  1  0
 16 17  2  0
 17 18  1  0
 18 19  1  0
 19 20  1  0
 20 21  1  0
 21 22  1  0
 22 23  1  0
  5 24  1  0
 24 25  1  0
 24 26  2  0
 26  2  1  0
 23  6  1  0
 17  8  1  0
 23 18  1  0
 16 11  1  0
M  END
>  <assay_chembl_id>  (791) 
CHEMBL4685676

>  <assay_description>  (791) 
Antagonist activity at androgen receptor in human LNCaP cells transfected with ARR2 PB-eGFP assessed as inhibition of DHT-induced transcriptional activity measured after 3 days by fluorescence assay

>  <parent_molecule_chembl_id>  (791) 
CHEMBL4798254

>  <canonical_smiles>  (791) 
Clc1ccc(C2Nc3ccc4ccccc4c3C3OCCCC23)c(Cl)c1

>  <standard_type>  (791) 
IC50

>  <standard_relation>  (791) 
=

>  <standard_value>  (791) 
20350.0

>  <standard_units>  (791) 
nM

>  <target_pref_name>  (791) 
Androgen Receptor

>  <target_chembl_id>  (791) 
CHEMBL1871

>  <target_organism>  (791) 
Homo sapiens

>  <pchembl_median>  (791) 
6.89

$$$$
CHEMBL4759623
     RDKit          2D

 25 30  0  0  0  0  0  0  0  0999 V2000
   -5.2500   -9.0933    0.0000 C   0  0  0  0  0  0  0  0  0  0  0  0
   -6.0000   -7.7942    0.0000 C   0  0  0  0  0  0  0  0  0  0  0  0
   -5.2500   -6.4952    0.0000 C   0  0  0  0  0  0  0  0  0  0  0  0
   -3.7500   -6.4952    0.0000 C   0  0  0  0  0  0  0  0  0  0  0  0
   -3.0000   -5.1962    0.0000 C   0  0  0  0  0  0  0  0  0  0  0  0
   -1.5000   -5.1962    0.0000 N   0  0  0  0  0  0  0  0  0  0  0  0
   -0.7500   -3.8971    0.0000 C   0  0  0  0  0  0  0  0  0  0  0  0
    0.7500   -3.8971    0.0000 C   0  0  0  0  0  0  0  0  0  0  0  0
    1.5000   -2.5981    0.0000 C   0  0  0  0  0  0  0  0  0  0  0  0
    0.7500   -1.2990    0.0000 C   0  0  0  0  0  0  0  0  0  0  0  0
    1.5000    0.0000    0.0000 C   0  0  0  0  0  0  0  0  0  0  0  0
    0.7500    1.2990    0.0000 C   0  0  0  0  0  0  0  0  0  0  0  0
   -0.7500    1.2990    0.0000 C   0  0  0  0  0  0  0  0  0  0  0  0
   -1.5000    0.0000    0.0000 C   0  0  0  0  0  0  0  0  0  0  0  0
   -0.7500   -1.2990    0.0000 C   0  0  0  0  0  0  0  0  0  0  0  0
   -1.5000   -2.5981    0.0000 C   0  0  0  0  0  0  0  0  0  0  0  0
   -3.0000   -2.5981    0.0000 C   0  0  0  0  0  0  0  0  0  0  0  0
   -4.0037   -1.4834    0.0000 C   0  0  0  0  0  0  0  0  0  0  0  0
   -5.4709   -1.1715    0.0000 C   0  0  0  0  0  0  0  0  0  0  0  0
   -6.2209   -2.4705    0.0000 C   0  0  0  0  0  0  0  0  0  0  0  0
   -5.2172   -3.5852    0.0000 C   0  0  0  0  0  0  0  0  0  0  0  0
   -5.3740   -2.0935    0.0000 C   0  0  0  0  0  0  0  0  0  0  0  0
   -3.7500   -3.8971    0.0000 C   0  0  0  0  0  0  0  0  0  0  0  0
   -3.0000   -7.7942    0.0000 C   0  0  0  0  0  0  0  0  0  0  0  0
   -3.7500   -9.0933    0.0000 C   0  0  0  0  0  0  0  0  0  0  0  0
  1  2  2  0
  2  3  1  0
  3  4  2  0
  4  5  1  0
  5  6  1  0
  6  7  1  0
  7  8  2  0
  8  9  1  0
  9 10  2  0
 10 11  1  0
 11 12  2  0
 12 13  1  0
 13 14  2  0
 14 15  1  0
 15 16  2  0
 16 17  1  0
 17 18  1  0
 18 19  1  0
 19 20  1  0
 20 21  1  0
 21 22  1  0
 21 23  1  0
  4 24  1  0
 24 25  2  0
 25  1  1  0
 23  5  1  0
 16  7  1  0
 23 17  1  0
 15 10  1  0
 22 18  1  0
M  END
>  <assay_chembl_id>  (792) 
CHEMBL4685676

>  <assay_description>  (792) 
Antagonist activity at androgen receptor in human LNCaP cells transfected with ARR2 PB-eGFP assessed as inhibition of DHT-induced transcriptional activity measured after 3 days by fluorescence assay

>  <parent_molecule_chembl_id>  (792) 
CHEMBL4759623

>  <canonical_smiles>  (792) 
c1ccc(C2Nc3ccc4ccccc4c3C3C4CCC(C4)C23)cc1

>  <standard_type>  (792) 
IC50

>  <standard_relation>  (792) 
=

>  <standard_value>  (792) 
5600.0

>  <standard_units>  (792) 
nM

>  <target_pref_name>  (792) 
Androgen Receptor

>  <target_chembl_id>  (792) 
CHEMBL1871

>  <target_organism>  (792) 
Homo sapiens

>  <pchembl_median>  (792) 
7.46

$$$$
CHEMBL4782786
     RDKit          2D

 26 31  0  0  0  0  0  0  0  0999 V2000
   -6.0000  -10.3923    0.0000 Cl  0  0  0  0  0  0  0  0  0  0  0  0
   -5.2500   -9.0933    0.0000 C   0  0  0  0  0  0  0  0  0  0  0  0
   -6.0000   -7.7942    0.0000 C   0  0  0  0  0  0  0  0  0  0  0  0
   -5.2500   -6.4952    0.0000 C   0  0  0  0  0  0  0  0  0  0  0  0
   -3.7500   -6.4952    0.0000 C   0  0  0  0  0  0  0  0  0  0  0  0
   -3.0000   -5.1962    0.0000 C   0  0  0  0  0  0  0  0  0  0  0  0
   -1.5000   -5.1962    0.0000 N   0  0  0  0  0  0  0  0  0  0  0  0
   -0.7500   -3.8971    0.0000 C   0  0  0  0  0  0  0  0  0  0  0  0
    0.7500   -3.8971    0.0000 C   0  0  0  0  0  0  0  0  0  0  0  0
    1.5000   -2.5981    0.0000 C   0  0  0  0  0  0  0  0  0  0  0  0
    0.7500   -1.2990    0.0000 C   0  0  0  0  0  0  0  0  0  0  0  0
    1.5000    0.0000    0.0000 C   0  0  0  0  0  0  0  0  0  0  0  0
    0.7500    1.2990    0.0000 C   0  0  0  0  0  0  0  0  0  0  0  0
   -0.7500    1.2990    0.0000 C   0  0  0  0  0  0  0  0  0  0  0  0
   -1.5000    0.0000    0.0000 C   0  0  0  0  0  0  0  0  0  0  0  0
   -0.7500   -1.2990    0.0000 C   0  0  0  0  0  0  0  0  0  0  0  0
   -1.5000   -2.5981    0.0000 C   0  0  0  0  0  0  0  0  0  0  0  0
   -3.0000   -2.5981    0.0000 C   0  0  0  0  0  0  0  0  0  0  0  0
   -4.0037   -1.4834    0.0000 C   0  0  0  0  0  0  0  0  0  0  0  0
   -5.4709   -1.1715    0.0000 C   0  0  0  0  0  0  0  0  0  0  0  0
   -6.2209   -2.4705    0.0000 C   0  0  0  0  0  0  0  0  0  0  0  0
   -5.2172   -3.5852    0.0000 C   0  0  0  0  0  0  0  0  0  0  0  0
   -5.3740   -2.0935    0.0000 C   0  0  0  0  0  0  0  0  0  0  0  0
   -3.7500   -3.8971    0.0000 C   0  0  0  0  0  0  0  0  0  0  0  0
   -3.0000   -7.7942    0.0000 C   0  0  0  0  0  0  0  0  0  0  0  0
   -3.7500   -9.0933    0.0000 C   0  0  0  0  0  0  0  0  0  0  0  0
  1  2  1  0
  2  3  2  0
  3  4  1  0
  4  5  2  0
  5  6  1  0
  6  7  1  0
  7  8  1  0
  8  9  2  0
  9 10  1  0
 10 11  2  0
 11 12  1  0
 12 13  2  0
 13 14  1  0
 14 15  2  0
 15 16  1  0
 16 17  2  0
 17 18  1  0
 18 19  1  0
 19 20  1  0
 20 21  1  0
 21 22  1  0
 22 23  1  0
 22 24  1  0
  5 25  1  0
 25 26  2  0
 26  2  1  0
 24  6  1  0
 17  8  1  0
 24 18  1  0
 16 11  1  0
 23 19  1  0
M  END
>  <assay_chembl_id>  (793) 
CHEMBL4685676

>  <assay_description>  (793) 
Antagonist activity at androgen receptor in human LNCaP cells transfected with ARR2 PB-eGFP assessed as inhibition of DHT-induced transcriptional activity measured after 3 days by fluorescence assay

>  <parent_molecule_chembl_id>  (793) 
CHEMBL4782786

>  <canonical_smiles>  (793) 
Clc1ccc(C2Nc3ccc4ccccc4c3C3C4CCC(C4)C23)cc1

>  <standard_type>  (793) 
IC50

>  <standard_relation>  (793) 
=

>  <standard_value>  (793) 
7450.0

>  <standard_units>  (793) 
nM

>  <target_pref_name>  (793) 
Androgen Receptor

>  <target_chembl_id>  (793) 
CHEMBL1871

>  <target_organism>  (793) 
Homo sapiens

>  <pchembl_median>  (793) 
8.15

$$$$
CHEMBL4297185
     RDKit          2D

 28 30  0  0  0  0  0  0  0  0999 V2000
   -0.7968  -13.2811    0.0000 C   0  0  0  0  0  0  0  0  0  0  0  0
    0.6704  -12.9692    0.0000 C   0  0  0  0  0  0  0  0  0  0  0  0
    1.6741  -14.0839    0.0000 O   0  0  0  0  0  0  0  0  0  0  0  0
    1.1339  -11.5426    0.0000 C   0  0  0  0  0  0  0  0  0  0  0  0
    2.5605  -11.0791    0.0000 C   0  0  0  0  0  0  0  0  0  0  0  0
    2.5605   -9.5791    0.0000 C   0  0  0  0  0  0  0  0  0  0  0  0
    3.7740   -8.6974    0.0000 C   0  0  0  0  0  0  0  0  0  0  0  0
    5.1443   -9.3075    0.0000 O   0  0  0  0  0  0  0  0  0  0  0  0
    3.6172   -7.2057    0.0000 N   0  0  0  0  0  0  0  0  0  0  0  0
    4.8308   -6.3240    0.0000 C   0  0  0  0  0  0  0  0  0  0  0  0
    6.2011   -6.9341    0.0000 C   0  0  0  0  0  0  0  0  0  0  0  0
    4.6740   -4.8322    0.0000 C   0  0  0  0  0  0  0  0  0  0  0  0
    3.3037   -4.2221    0.0000 N   0  0  0  0  0  0  0  0  0  0  0  0
    2.0046   -4.9721    0.0000 C   0  0  0  0  0  0  0  0  0  0  0  0
    0.8899   -3.9684    0.0000 C   0  0  0  0  0  0  0  0  0  0  0  0
    1.5000   -2.5981    0.0000 C   0  0  0  0  0  0  0  0  0  0  0  0
    0.7500   -1.2990    0.0000 C   0  0  0  0  0  0  0  0  0  0  0  0
    1.5000    0.0000    0.0000 C   0  0  0  0  0  0  0  0  0  0  0  0
    0.7500    1.2990    0.0000 C   0  0  0  0  0  0  0  0  0  0  0  0
   -0.7500    1.2990    0.0000 C   0  0  0  0  0  0  0  0  0  0  0  0
   -1.5000    2.5981    0.0000 C   0  0  0  0  0  0  0  0  0  0  0  0
   -2.2500    3.8971    0.0000 N   0  0  0  0  0  0  0  0  0  0  0  0
   -1.5000    0.0000    0.0000 C   0  0  0  0  0  0  0  0  0  0  0  0
   -3.0000    0.0000    0.0000 Cl  0  0  0  0  0  0  0  0  0  0  0  0
   -0.7500   -1.2990    0.0000 C   0  0  0  0  0  0  0  0  0  0  0  0
    2.9918   -2.7549    0.0000 N   0  0  0  0  0  0  0  0  0  0  0  0
    1.1339   -9.1156    0.0000 N   0  0  0  0  0  0  0  0  0  0  0  0
    0.2522  -10.3291    0.0000 N   0  0  0  0  0  0  0  0  0  0  0  0
  1  2  1  0
  2  3  1  0
  2  4  1  0
  4  5  2  0
  5  6  1  0
  6  7  1  0
  7  8  2  0
  7  9  1  0
  9 10  1  0
 10 11  1  6
 10 12  1  0
 12 13  1  0
 13 14  1  0
 14 15  2  0
 15 16  1  0
 16 17  1  0
 17 18  2  0
 18 19  1  0
 19 20  2  0
 20 21  1  0
 21 22  3  0
 20 23  1  0
 23 24  1  0
 23 25  2  0
 16 26  2  0
  6 27  2  0
 27 28  1  0
 28  4  1  0
 26 13  1  0
 25 17  1  0
M  END
>  <assay_chembl_id>  (794) 
CHEMBL4710579

>  <assay_description>  (794) 
Inhibition of androgen receptor (unknown origin)

>  <parent_molecule_chembl_id>  (794) 
CHEMBL4297185

>  <canonical_smiles>  (794) 
CC(O)c1cc(C(=O)N[C@@H](C)Cn2ccc(-c3ccc(C#N)c(Cl)c3)n2)n[nH]1

>  <standard_type>  (794) 
IC50

>  <standard_relation>  (794) 
=

>  <standard_value>  (794) 
26.0

>  <standard_units>  (794) 
nM

>  <target_pref_name>  (794) 
Androgen Receptor

>  <target_chembl_id>  (794) 
CHEMBL1871

>  <target_organism>  (794) 
Homo sapiens

>  <pchembl_median>  (794) 
5.19

$$$$
CHEMBL4761957
     RDKit          2D

 36 38  0  0  0  0  0  0  0  0999 V2000
    3.7740  -11.2955    0.0000 C   0  0  0  0  0  0  0  0  0  0  0  0
    4.9876  -10.4138    0.0000 C   0  0  0  0  0  0  0  0  0  0  0  0
    6.3579  -11.0239    0.0000 C   0  0  0  0  0  0  0  0  0  0  0  0
    4.8308   -8.9221    0.0000 S   0  0  0  0  0  0  0  0  0  0  0  0
    3.3390   -9.0788    0.0000 O   0  0  0  0  0  0  0  0  0  0  0  0
    6.3225   -8.7653    0.0000 O   0  0  0  0  0  0  0  0  0  0  0  0
    4.6740   -7.4303    0.0000 N   0  0  0  0  0  0  0  0  0  0  0  0
    3.3037   -6.8202    0.0000 C   0  0  0  0  0  0  0  0  0  0  0  0
    2.9918   -5.3529    0.0000 N   0  0  0  0  0  0  0  0  0  0  0  0
    1.5000   -5.1962    0.0000 C   0  0  0  0  0  0  0  0  0  0  0  0
    0.7500   -3.8971    0.0000 C   0  0  0  0  0  0  0  0  0  0  0  0
    1.5000   -2.5981    0.0000 O   0  0  0  0  0  0  0  0  0  0  0  0
    0.7500   -1.2990    0.0000 C   0  0  0  0  0  0  0  0  0  0  0  0
    1.5000    0.0000    0.0000 C   0  0  0  0  0  0  0  0  0  0  0  0
    0.7500    1.2990    0.0000 C   0  0  0  0  0  0  0  0  0  0  0  0
   -0.7500    1.2990    0.0000 C   0  0  0  0  0  0  0  0  0  0  0  0
   -1.5000    2.5981    0.0000 C   0  0  0  0  0  0  0  0  0  0  0  0
   -2.7990    1.8481    0.0000 C   0  0  0  0  0  0  0  0  0  0  0  0
   -0.2010    3.3481    0.0000 C   0  0  0  0  0  0  0  0  0  0  0  0
   -2.2500    3.8971    0.0000 C   0  0  0  0  0  0  0  0  0  0  0  0
   -1.5000    5.1962    0.0000 C   0  0  0  0  0  0  0  0  0  0  0  0
   -2.2500    6.4952    0.0000 C   0  0  0  0  0  0  0  0  0  0  0  0
   -1.5000    7.7942    0.0000 Cl  0  0  0  0  0  0  0  0  0  0  0  0
   -3.7500    6.4952    0.0000 C   0  0  0  0  0  0  0  0  0  0  0  0
   -4.5000    7.7942    0.0000 O   0  0  0  0  0  0  0  0  0  0  0  0
   -6.0000    7.7942    0.0000 C   0  0  0  0  0  0  0  0  0  0  0  0
   -6.7500    9.0933    0.0000 C   0  0  0  0  0  0  0  0  0  0  0  0
   -8.2500    9.0933    0.0000 Cl  0  0  0  0  0  0  0  0  0  0  0  0
   -4.5000    5.1962    0.0000 C   0  0  0  0  0  0  0  0  0  0  0  0
   -6.0000    5.1962    0.0000 C   0  0  0  0  0  0  0  0  0  0  0  0
   -7.5000    5.1962    0.0000 N   0  0  0  0  0  0  0  0  0  0  0  0
   -3.7500    3.8971    0.0000 C   0  0  0  0  0  0  0  0  0  0  0  0
   -1.5000    0.0000    0.0000 C   0  0  0  0  0  0  0  0  0  0  0  0
   -0.7500   -1.2990    0.0000 C   0  0  0  0  0  0  0  0  0  0  0  0
    0.8899   -6.5665    0.0000 C   0  0  0  0  0  0  0  0  0  0  0  0
    2.0046   -7.5702    0.0000 O   0  0  0  0  0  0  0  0  0  0  0  0
  1  2  1  0
  2  3  1  0
  2  4  1  0
  4  5  2  0
  4  6  2  0
  4  7  1  0
  7  8  1  0
  8  9  2  0
  9 10  1  0
 10 11  1  0
 11 12  1  0
 12 13  1  0
 13 14  2  0
 14 15  1  0
 15 16  2  0
 16 17  1  0
 17 18  1  0
 17 19  1  0
 17 20  1  0
 20 21  2  0
 21 22  1  0
 22 23  1  0
 22 24  2  0
 24 25  1  0
 25 26  1  0
 26 27  1  0
 27 28  1  0
 24 29  1  0
 29 30  1  0
 30 31  3  0
 29 32  2  0
 16 33  1  0
 33 34  2  0
 10 35  2  0
 35 36  1  0
 36  8  1  0
 34 13  1  0
 32 20  1  0
M  END
>  <assay_chembl_id>  (795) 
CHEMBL4731338

>  <assay_description>  (795) 
Modulation of AR in human LNCAP cells transfected with PSA reporter gene assessed as inhibition of R1881-induced PSA luciferase activity pretreated for 1 hr followed by R1881 addition and measured after 24 hrs by luciferase assay

>  <parent_molecule_chembl_id>  (795) 
CHEMBL4761957

>  <canonical_smiles>  (795) 
CC(C)S(=O)(=O)Nc1nc(COc2ccc(C(C)(C)c3cc(Cl)c(OCCCl)c(C#N)c3)cc2)co1

>  <standard_type>  (795) 
IC50

>  <standard_relation>  (795) 
=

>  <standard_value>  (795) 
500.0

>  <standard_units>  (795) 
nM

>  <target_pref_name>  (795) 
Androgen Receptor

>  <target_chembl_id>  (795) 
CHEMBL1871

>  <target_organism>  (795) 
Homo sapiens

>  <pchembl_median>  (795) 
6.0

$$$$
CHEMBL4757339
     RDKit          2D

 34 36  0  0  0  0  0  0  0  0999 V2000
    2.7990   -1.8481    0.0000 C   0  0  0  0  0  0  0  0  0  0  0  0
    1.5000   -2.5981    0.0000 C   0  0  0  0  0  0  0  0  0  0  0  0
    0.2010   -3.3481    0.0000 C   0  0  0  0  0  0  0  0  0  0  0  0
    0.7500   -1.2990    0.0000 C   0  0  0  0  0  0  0  0  0  0  0  0
    1.5000    0.0000    0.0000 C   0  0  0  0  0  0  0  0  0  0  0  0
    0.7500    1.2990    0.0000 C   0  0  0  0  0  0  0  0  0  0  0  0
   -0.7500    1.2990    0.0000 C   0  0  0  0  0  0  0  0  0  0  0  0
   -1.5000    2.5981    0.0000 O   0  0  0  0  0  0  0  0  0  0  0  0
   -0.7500    3.8971    0.0000 C   0  0  0  0  0  0  0  0  0  0  0  0
   -1.5000    5.1962    0.0000 C   0  0  0  0  0  0  0  0  0  0  0  0
   -0.7500    6.4952    0.0000 C   0  0  0  0  0  0  0  0  0  0  0  0
   -1.5000    7.7942    0.0000 C   0  0  0  0  0  0  0  0  0  0  0  0
   -3.0000    7.7942    0.0000 N   0  0  0  0  0  0  0  0  0  0  0  0
   -3.7500    6.4952    0.0000 C   0  0  0  0  0  0  0  0  0  0  0  0
   -5.2500    6.4952    0.0000 N   0  0  0  0  0  0  0  0  0  0  0  0
   -6.0000    7.7942    0.0000 S   0  0  0  0  0  0  0  0  0  0  0  0
   -6.7500    9.0933    0.0000 C   0  0  0  0  0  0  0  0  0  0  0  0
   -4.7010    8.5442    0.0000 O   0  0  0  0  0  0  0  0  0  0  0  0
   -7.2990    7.0442    0.0000 O   0  0  0  0  0  0  0  0  0  0  0  0
   -3.0000    5.1962    0.0000 N   0  0  0  0  0  0  0  0  0  0  0  0
   -1.5000    0.0000    0.0000 C   0  0  0  0  0  0  0  0  0  0  0  0
   -0.7500   -1.2990    0.0000 C   0  0  0  0  0  0  0  0  0  0  0  0
    2.2500   -3.8971    0.0000 C   0  0  0  0  0  0  0  0  0  0  0  0
    1.5000   -5.1962    0.0000 C   0  0  0  0  0  0  0  0  0  0  0  0
    2.2500   -6.4952    0.0000 C   0  0  0  0  0  0  0  0  0  0  0  0
    1.5000   -7.7942    0.0000 F   0  0  0  0  0  0  0  0  0  0  0  0
    3.7500   -6.4952    0.0000 C   0  0  0  0  0  0  0  0  0  0  0  0
    4.5000   -7.7942    0.0000 O   0  0  0  0  0  0  0  0  0  0  0  0
    6.0000   -7.7942    0.0000 C   0  0  0  0  0  0  0  0  0  0  0  0
    6.7500   -9.0933    0.0000 C   0  0  0  0  0  0  0  0  0  0  0  0
    8.2500   -9.0933    0.0000 Cl  0  0  0  0  0  0  0  0  0  0  0  0
    4.5000   -5.1962    0.0000 C   0  0  0  0  0  0  0  0  0  0  0  0
    6.0000   -5.1962    0.0000 Cl  0  0  0  0  0  0  0  0  0  0  0  0
    3.7500   -3.8971    0.0000 C   0  0  0  0  0  0  0  0  0  0  0  0
  1  2  1  0
  2  3  1  0
  2  4  1  0
  4  5  2  0
  5  6  1  0
  6  7  2  0
  7  8  1  0
  8  9  1  0
  9 10  1  0
 10 11  2  0
 11 12  1  0
 12 13  2  0
 13 14  1  0
 14 15  1  0
 15 16  1  0
 16 17  1  0
 16 18  2  0
 16 19  2  0
 14 20  2  0
  7 21  1  0
 21 22  2  0
  2 23  1  0
 23 24  2  0
 24 25  1  0
 25 26  1  0
 25 27  2  0
 27 28  1  0
 28 29  1  0
 29 30  1  0
 30 31  1  0
 27 32  1  0
 32 33  1  0
 32 34  2  0
 22  4  1  0
 34 23  1  0
 20 10  1  0
M  END
>  <assay_chembl_id>  (796) 
CHEMBL4731338

>  <assay_description>  (796) 
Modulation of AR in human LNCAP cells transfected with PSA reporter gene assessed as inhibition of R1881-induced PSA luciferase activity pretreated for 1 hr followed by R1881 addition and measured after 24 hrs by luciferase assay

>  <parent_molecule_chembl_id>  (796) 
CHEMBL4757339

>  <canonical_smiles>  (796) 
CC(C)(c1ccc(OCc2ccnc(NS(C)(=O)=O)n2)cc1)c1cc(F)c(OCCCl)c(Cl)c1

>  <standard_type>  (796) 
IC50

>  <standard_relation>  (796) 
=

>  <standard_value>  (796) 
500.0

>  <standard_units>  (796) 
nM

>  <target_pref_name>  (796) 
Androgen Receptor

>  <target_chembl_id>  (796) 
CHEMBL1871

>  <target_organism>  (796) 
Homo sapiens

>  <pchembl_median>  (796) 
7.51

$$$$
