CHEMBL14401
     RDKit          2D

 31 34  0  0  0  0  0  0  0  0999 V2000
   -4.9294   -3.0000    0.0000 C   0  0  0  0  0  0  0  0  0  0  0  0
   -4.9294   -1.5000    0.0000 O   0  0  0  0  0  0  0  0  0  0  0  0
   -3.6304   -0.7500    0.0000 C   0  0  0  0  0  0  0  0  0  0  0  0
   -2.3313   -1.5000    0.0000 C   0  0  0  0  0  0  0  0  0  0  0  0
   -1.0323   -0.7500    0.0000 C   0  0  0  0  0  0  0  0  0  0  0  0
   -1.0323    0.7500    0.0000 C   0  0  0  0  0  0  0  0  0  0  0  0
   -2.3313    1.5000    0.0000 C   0  0  0  0  0  0  0  0  0  0  0  0
   -3.6304    0.7500    0.0000 C   0  0  0  0  0  0  0  0  0  0  0  0
   -4.9294    1.5000    0.0000 C   0  0  0  0  0  0  0  0  0  0  0  0
   -6.2284    2.2500    0.0000 F   0  0  0  0  0  0  0  0  0  0  0  0
   -4.1794    2.7990    0.0000 F   0  0  0  0  0  0  0  0  0  0  0  0
   -5.6794    0.2010    0.0000 F   0  0  0  0  0  0  0  0  0  0  0  0
    0.3943    1.2135    0.0000 N   0  0  0  0  0  0  0  0  0  0  0  0
    0.8578    2.6401    0.0000 C   0  0  0  0  0  0  0  0  0  0  0  0
   -0.1459    3.7548    0.0000 O   0  0  0  0  0  0  0  0  0  0  0  0
    2.3250    2.9520    0.0000 N   0  0  0  0  0  0  0  0  0  0  0  0
    2.7886    4.3786    0.0000 C   0  0  0  0  0  0  0  0  0  0  0  0
    4.2558    4.6904    0.0000 C   0  0  0  0  0  0  0  0  0  0  0  0
    4.7193    6.1170    0.0000 N   0  0  0  0  0  0  0  0  0  0  0  0
    3.7156    7.2317    0.0000 C   0  0  0  0  0  0  0  0  0  0  0  0
    2.2484    6.9199    0.0000 C   0  0  0  0  0  0  0  0  0  0  0  0
    1.2447    8.0346    0.0000 C   0  0  0  0  0  0  0  0  0  0  0  0
    1.7082    9.4612    0.0000 C   0  0  0  0  0  0  0  0  0  0  0  0
    0.7045   10.5759    0.0000 C   0  0  0  0  0  0  0  0  0  0  0  0
   -0.7627   10.2640    0.0000 C   0  0  0  0  0  0  0  0  0  0  0  0
   -1.7664   11.3787    0.0000 F   0  0  0  0  0  0  0  0  0  0  0  0
   -1.2262    8.8374    0.0000 C   0  0  0  0  0  0  0  0  0  0  0  0
   -0.2225    7.7227    0.0000 C   0  0  0  0  0  0  0  0  0  0  0  0
    1.7849    5.4933    0.0000 C   0  0  0  0  0  0  0  0  0  0  0  0
    1.2760    0.0000    0.0000 C   0  0  0  0  0  0  0  0  0  0  0  0
    0.3943   -1.2135    0.0000 C   0  0  0  0  0  0  0  0  0  0  0  0
  1  2  1  0
  2  3  1  0
  3  4  2  0
  4  5  1  0
  5  6  2  0
  6  7  1  0
  7  8  2  0
  8  9  1  0
  9 10  1  0
  9 11  1  0
  9 12  1  0
  6 13  1  0
 13 14  1  0
 14 15  2  0
 14 16  1  0
 16 17  1  0
 17 18  2  0
 18 19  1  0
 19 20  2  0
 20 21  1  0
 21 22  1  0
 22 23  2  0
 23 24  1  0
 24 25  2  0
 25 26  1  0
 25 27  1  0
 27 28  2  0
 21 29  2  0
 13 30  1  0
 30 31  1  0
  8  3  1  0
 29 17  1  0
 31  5  1  0
 28 22  1  0
M  END
>  <assay_chembl_id>  (1) 
CHEMBL617788

>  <assay_description>  (1) 
Displacement of [3H]5-HT from human 5-hydroxytryptamine 2B receptor expressed in HEK293 cells

>  <parent_molecule_chembl_id>  (1) 
CHEMBL14401

>  <canonical_smiles>  (1) 
COc1cc2c(cc1C(F)(F)F)N(C(=O)Nc1cncc(-c3ccc(F)cc3)c1)CC2

>  <standard_type>  (1) 
Ki

>  <standard_relation>  (1) 
=

>  <standard_value>  (1) 
63.1

>  <standard_units>  (1) 
nM

>  <target_pref_name>  (1) 
Serotonin 2b (5-HT2b) receptor

>  <target_chembl_id>  (1) 
CHEMBL1833

>  <target_organism>  (1) 
Homo sapiens

>  <pchembl_median>  (1) 
7.05

$$$$
CHEMBL14863
     RDKit          2D

 30 33  0  0  0  0  0  0  0  0999 V2000
   -4.9294   -3.0000    0.0000 C   0  0  0  0  0  0  0  0  0  0  0  0
   -4.9294   -1.5000    0.0000 O   0  0  0  0  0  0  0  0  0  0  0  0
   -3.6304   -0.7500    0.0000 C   0  0  0  0  0  0  0  0  0  0  0  0
   -2.3313   -1.5000    0.0000 C   0  0  0  0  0  0  0  0  0  0  0  0
   -1.0323   -0.7500    0.0000 C   0  0  0  0  0  0  0  0  0  0  0  0
   -1.0323    0.7500    0.0000 C   0  0  0  0  0  0  0  0  0  0  0  0
   -2.3313    1.5000    0.0000 C   0  0  0  0  0  0  0  0  0  0  0  0
   -3.6304    0.7500    0.0000 C   0  0  0  0  0  0  0  0  0  0  0  0
   -4.9294    1.5000    0.0000 C   0  0  0  0  0  0  0  0  0  0  0  0
   -6.2284    2.2500    0.0000 F   0  0  0  0  0  0  0  0  0  0  0  0
   -4.1794    2.7990    0.0000 F   0  0  0  0  0  0  0  0  0  0  0  0
   -5.6794    0.2010    0.0000 F   0  0  0  0  0  0  0  0  0  0  0  0
    0.3943    1.2135    0.0000 N   0  0  0  0  0  0  0  0  0  0  0  0
    0.8578    2.6401    0.0000 C   0  0  0  0  0  0  0  0  0  0  0  0
   -0.1459    3.7548    0.0000 O   0  0  0  0  0  0  0  0  0  0  0  0
    2.3250    2.9520    0.0000 N   0  0  0  0  0  0  0  0  0  0  0  0
    2.7886    4.3786    0.0000 C   0  0  0  0  0  0  0  0  0  0  0  0
    4.2558    4.6904    0.0000 C   0  0  0  0  0  0  0  0  0  0  0  0
    4.7193    6.1170    0.0000 N   0  0  0  0  0  0  0  0  0  0  0  0
    3.7156    7.2317    0.0000 C   0  0  0  0  0  0  0  0  0  0  0  0
    2.2484    6.9199    0.0000 C   0  0  0  0  0  0  0  0  0  0  0  0
    1.2447    8.0346    0.0000 C   0  0  0  0  0  0  0  0  0  0  0  0
    1.7082    9.4612    0.0000 C   0  0  0  0  0  0  0  0  0  0  0  0
    0.7045   10.5759    0.0000 C   0  0  0  0  0  0  0  0  0  0  0  0
   -0.7627   10.2640    0.0000 N   0  0  0  0  0  0  0  0  0  0  0  0
   -1.2262    8.8374    0.0000 C   0  0  0  0  0  0  0  0  0  0  0  0
   -0.2225    7.7227    0.0000 C   0  0  0  0  0  0  0  0  0  0  0  0
    1.7849    5.4933    0.0000 C   0  0  0  0  0  0  0  0  0  0  0  0
    1.2760    0.0000    0.0000 C   0  0  0  0  0  0  0  0  0  0  0  0
    0.3943   -1.2135    0.0000 C   0  0  0  0  0  0  0  0  0  0  0  0
  1  2  1  0
  2  3  1  0
  3  4  2  0
  4  5  1  0
  5  6  2  0
  6  7  1  0
  7  8  2  0
  8  9  1  0
  9 10  1  0
  9 11  1  0
  9 12  1  0
  6 13  1  0
 13 14  1  0
 14 15  2  0
 14 16  1  0
 16 17  1  0
 17 18  2  0
 18 19  1  0
 19 20  2  0
 20 21  1  0
 21 22  1  0
 22 23  2  0
 23 24  1  0
 24 25  2  0
 25 26  1  0
 26 27  2  0
 21 28  2  0
 13 29  1  0
 29 30  1  0
  8  3  1  0
 28 17  1  0
 30  5  1  0
 27 22  1  0
M  END
>  <assay_chembl_id>  (2) 
CHEMBL617788

>  <assay_description>  (2) 
Displacement of [3H]5-HT from human 5-hydroxytryptamine 2B receptor expressed in HEK293 cells

>  <parent_molecule_chembl_id>  (2) 
CHEMBL14863

>  <canonical_smiles>  (2) 
COc1cc2c(cc1C(F)(F)F)N(C(=O)Nc1cncc(-c3ccncc3)c1)CC2

>  <standard_type>  (2) 
Ki

>  <standard_relation>  (2) 
=

>  <standard_value>  (2) 
10.0

>  <standard_units>  (2) 
nM

>  <target_pref_name>  (2) 
Serotonin 2b (5-HT2b) receptor

>  <target_chembl_id>  (2) 
CHEMBL1833

>  <target_organism>  (2) 
Homo sapiens

>  <pchembl_median>  (2) 
6.7

$$$$
CHEMBL14841
     RDKit          2D

 30 33  0  0  0  0  0  0  0  0999 V2000
   -4.9294   -3.0000    0.0000 C   0  0  0  0  0  0  0  0  0  0  0  0
   -4.9294   -1.5000    0.0000 S   0  0  0  0  0  0  0  0  0  0  0  0
   -3.6304   -0.7500    0.0000 C   0  0  0  0  0  0  0  0  0  0  0  0
   -2.3313   -1.5000    0.0000 C   0  0  0  0  0  0  0  0  0  0  0  0
   -1.0323   -0.7500    0.0000 C   0  0  0  0  0  0  0  0  0  0  0  0
   -1.0323    0.7500    0.0000 C   0  0  0  0  0  0  0  0  0  0  0  0
   -2.3313    1.5000    0.0000 C   0  0  0  0  0  0  0  0  0  0  0  0
   -3.6304    0.7500    0.0000 C   0  0  0  0  0  0  0  0  0  0  0  0
   -4.9294    1.5000    0.0000 C   0  0  0  0  0  0  0  0  0  0  0  0
   -6.2284    2.2500    0.0000 F   0  0  0  0  0  0  0  0  0  0  0  0
   -4.1794    2.7990    0.0000 F   0  0  0  0  0  0  0  0  0  0  0  0
   -5.6794    0.2010    0.0000 F   0  0  0  0  0  0  0  0  0  0  0  0
    0.3943    1.2135    0.0000 N   0  0  0  0  0  0  0  0  0  0  0  0
    0.8578    2.6401    0.0000 C   0  0  0  0  0  0  0  0  0  0  0  0
   -0.1459    3.7548    0.0000 O   0  0  0  0  0  0  0  0  0  0  0  0
    2.3250    2.9520    0.0000 N   0  0  0  0  0  0  0  0  0  0  0  0
    2.7886    4.3786    0.0000 C   0  0  0  0  0  0  0  0  0  0  0  0
    4.2558    4.6904    0.0000 C   0  0  0  0  0  0  0  0  0  0  0  0
    4.7193    6.1170    0.0000 C   0  0  0  0  0  0  0  0  0  0  0  0
    3.7156    7.2317    0.0000 C   0  0  0  0  0  0  0  0  0  0  0  0
    2.2484    6.9199    0.0000 C   0  0  0  0  0  0  0  0  0  0  0  0
    1.2447    8.0346    0.0000 C   0  0  0  0  0  0  0  0  0  0  0  0
    1.7082    9.4612    0.0000 C   0  0  0  0  0  0  0  0  0  0  0  0
    0.7045   10.5759    0.0000 C   0  0  0  0  0  0  0  0  0  0  0  0
   -0.7627   10.2640    0.0000 N   0  0  0  0  0  0  0  0  0  0  0  0
   -1.2262    8.8374    0.0000 C   0  0  0  0  0  0  0  0  0  0  0  0
   -0.2225    7.7227    0.0000 C   0  0  0  0  0  0  0  0  0  0  0  0
    1.7849    5.4933    0.0000 C   0  0  0  0  0  0  0  0  0  0  0  0
    1.2760    0.0000    0.0000 C   0  0  0  0  0  0  0  0  0  0  0  0
    0.3943   -1.2135    0.0000 C   0  0  0  0  0  0  0  0  0  0  0  0
  1  2  1  0
  2  3  1  0
  3  4  2  0
  4  5  1  0
  5  6  2  0
  6  7  1  0
  7  8  2  0
  8  9  1  0
  9 10  1  0
  9 11  1  0
  9 12  1  0
  6 13  1  0
 13 14  1  0
 14 15  2  0
 14 16  1  0
 16 17  1  0
 17 18  2  0
 18 19  1  0
 19 20  2  0
 20 21  1  0
 21 22  1  0
 22 23  2  0
 23 24  1  0
 24 25  2  0
 25 26  1  0
 26 27  2  0
 21 28  2  0
 13 29  1  0
 29 30  1  0
  8  3  1  0
 28 17  1  0
 30  5  1  0
 27 22  1  0
M  END
>  <assay_chembl_id>  (3) 
CHEMBL617788

>  <assay_description>  (3) 
Displacement of [3H]5-HT from human 5-hydroxytryptamine 2B receptor expressed in HEK293 cells

>  <parent_molecule_chembl_id>  (3) 
CHEMBL14841

>  <canonical_smiles>  (3) 
CSc1cc2c(cc1C(F)(F)F)N(C(=O)Nc1cccc(-c3ccncc3)c1)CC2

>  <standard_type>  (3) 
Ki

>  <standard_relation>  (3) 
=

>  <standard_value>  (3) 
25.12

>  <standard_units>  (3) 
nM

>  <target_pref_name>  (3) 
Serotonin 2b (5-HT2b) receptor

>  <target_chembl_id>  (3) 
CHEMBL1833

>  <target_organism>  (3) 
Homo sapiens

>  <pchembl_median>  (3) 
6.25

$$$$
CHEMBL14652
     RDKit          2D

 30 33  0  0  0  0  0  0  0  0999 V2000
   -4.9294   -3.0000    0.0000 C   0  0  0  0  0  0  0  0  0  0  0  0
   -4.9294   -1.5000    0.0000 O   0  0  0  0  0  0  0  0  0  0  0  0
   -3.6304   -0.7500    0.0000 C   0  0  0  0  0  0  0  0  0  0  0  0
   -2.3313   -1.5000    0.0000 C   0  0  0  0  0  0  0  0  0  0  0  0
   -1.0323   -0.7500    0.0000 C   0  0  0  0  0  0  0  0  0  0  0  0
   -1.0323    0.7500    0.0000 C   0  0  0  0  0  0  0  0  0  0  0  0
   -2.3313    1.5000    0.0000 C   0  0  0  0  0  0  0  0  0  0  0  0
   -3.6304    0.7500    0.0000 C   0  0  0  0  0  0  0  0  0  0  0  0
   -4.9294    1.5000    0.0000 C   0  0  0  0  0  0  0  0  0  0  0  0
   -6.2284    2.2500    0.0000 F   0  0  0  0  0  0  0  0  0  0  0  0
   -4.1794    2.7990    0.0000 F   0  0  0  0  0  0  0  0  0  0  0  0
   -5.6794    0.2010    0.0000 F   0  0  0  0  0  0  0  0  0  0  0  0
    0.3943    1.2135    0.0000 N   0  0  0  0  0  0  0  0  0  0  0  0
    0.8578    2.6401    0.0000 C   0  0  0  0  0  0  0  0  0  0  0  0
   -0.1459    3.7548    0.0000 O   0  0  0  0  0  0  0  0  0  0  0  0
    2.3250    2.9520    0.0000 N   0  0  0  0  0  0  0  0  0  0  0  0
    2.7886    4.3786    0.0000 C   0  0  0  0  0  0  0  0  0  0  0  0
    4.2558    4.6904    0.0000 C   0  0  0  0  0  0  0  0  0  0  0  0
    4.7193    6.1170    0.0000 N   0  0  0  0  0  0  0  0  0  0  0  0
    3.7156    7.2317    0.0000 C   0  0  0  0  0  0  0  0  0  0  0  0
    2.2484    6.9199    0.0000 C   0  0  0  0  0  0  0  0  0  0  0  0
    1.2447    8.0346    0.0000 C   0  0  0  0  0  0  0  0  0  0  0  0
    1.7082    9.4612    0.0000 C   0  0  0  0  0  0  0  0  0  0  0  0
    0.7045   10.5759    0.0000 C   0  0  0  0  0  0  0  0  0  0  0  0
   -0.7627   10.2640    0.0000 C   0  0  0  0  0  0  0  0  0  0  0  0
   -1.2262    8.8374    0.0000 C   0  0  0  0  0  0  0  0  0  0  0  0
   -0.2225    7.7227    0.0000 C   0  0  0  0  0  0  0  0  0  0  0  0
    1.7849    5.4933    0.0000 C   0  0  0  0  0  0  0  0  0  0  0  0
    1.2760    0.0000    0.0000 C   0  0  0  0  0  0  0  0  0  0  0  0
    0.3943   -1.2135    0.0000 C   0  0  0  0  0  0  0  0  0  0  0  0
  1  2  1  0
  2  3  1  0
  3  4  2  0
  4  5  1  0
  5  6  2  0
  6  7  1  0
  7  8  2  0
  8  9  1  0
  9 10  1  0
  9 11  1  0
  9 12  1  0
  6 13  1  0
 13 14  1  0
 14 15  2  0
 14 16  1  0
 16 17  1  0
 17 18  2  0
 18 19  1  0
 19 20  2  0
 20 21  1  0
 21 22  1  0
 22 23  2  0
 23 24  1  0
 24 25  2  0
 25 26  1  0
 26 27  2  0
 21 28  2  0
 13 29  1  0
 29 30  1  0
  8  3  1  0
 28 17  1  0
 30  5  1  0
 27 22  1  0
M  END
>  <assay_chembl_id>  (4) 
CHEMBL617788

>  <assay_description>  (4) 
Displacement of [3H]5-HT from human 5-hydroxytryptamine 2B receptor expressed in HEK293 cells

>  <parent_molecule_chembl_id>  (4) 
CHEMBL14652

>  <canonical_smiles>  (4) 
COc1cc2c(cc1C(F)(F)F)N(C(=O)Nc1cncc(-c3ccccc3)c1)CC2

>  <standard_type>  (4) 
Ki

>  <standard_relation>  (4) 
=

>  <standard_value>  (4) 
25.12

>  <standard_units>  (4) 
nM

>  <target_pref_name>  (4) 
Serotonin 2b (5-HT2b) receptor

>  <target_chembl_id>  (4) 
CHEMBL1833

>  <target_organism>  (4) 
Homo sapiens

>  <pchembl_median>  (4) 
5.97

$$$$
CHEMBL277111
     RDKit          2D

 30 33  0  0  0  0  0  0  0  0999 V2000
   -4.9294   -3.0000    0.0000 C   0  0  0  0  0  0  0  0  0  0  0  0
   -4.9294   -1.5000    0.0000 O   0  0  0  0  0  0  0  0  0  0  0  0
   -3.6304   -0.7500    0.0000 C   0  0  0  0  0  0  0  0  0  0  0  0
   -2.3313   -1.5000    0.0000 C   0  0  0  0  0  0  0  0  0  0  0  0
   -1.0323   -0.7500    0.0000 C   0  0  0  0  0  0  0  0  0  0  0  0
   -1.0323    0.7500    0.0000 C   0  0  0  0  0  0  0  0  0  0  0  0
   -2.3313    1.5000    0.0000 C   0  0  0  0  0  0  0  0  0  0  0  0
   -3.6304    0.7500    0.0000 C   0  0  0  0  0  0  0  0  0  0  0  0
   -4.9294    1.5000    0.0000 C   0  0  0  0  0  0  0  0  0  0  0  0
   -6.2284    2.2500    0.0000 F   0  0  0  0  0  0  0  0  0  0  0  0
   -4.1794    2.7990    0.0000 F   0  0  0  0  0  0  0  0  0  0  0  0
   -5.6794    0.2010    0.0000 F   0  0  0  0  0  0  0  0  0  0  0  0
    0.3943    1.2135    0.0000 N   0  0  0  0  0  0  0  0  0  0  0  0
    0.8578    2.6401    0.0000 C   0  0  0  0  0  0  0  0  0  0  0  0
   -0.1459    3.7548    0.0000 O   0  0  0  0  0  0  0  0  0  0  0  0
    2.3250    2.9520    0.0000 N   0  0  0  0  0  0  0  0  0  0  0  0
    2.7886    4.3786    0.0000 C   0  0  0  0  0  0  0  0  0  0  0  0
    4.2558    4.6904    0.0000 C   0  0  0  0  0  0  0  0  0  0  0  0
    4.7193    6.1170    0.0000 C   0  0  0  0  0  0  0  0  0  0  0  0
    3.7156    7.2317    0.0000 C   0  0  0  0  0  0  0  0  0  0  0  0
    4.1791    8.6583    0.0000 C   0  0  0  0  0  0  0  0  0  0  0  0
    5.6464    8.9702    0.0000 C   0  0  0  0  0  0  0  0  0  0  0  0
    6.1099   10.3968    0.0000 C   0  0  0  0  0  0  0  0  0  0  0  0
    5.1062   11.5115    0.0000 C   0  0  0  0  0  0  0  0  0  0  0  0
    3.6390   11.1996    0.0000 N   0  0  0  0  0  0  0  0  0  0  0  0
    3.1755    9.7730    0.0000 C   0  0  0  0  0  0  0  0  0  0  0  0
    2.2484    6.9199    0.0000 N   0  0  0  0  0  0  0  0  0  0  0  0
    1.7849    5.4933    0.0000 C   0  0  0  0  0  0  0  0  0  0  0  0
    1.2760    0.0000    0.0000 C   0  0  0  0  0  0  0  0  0  0  0  0
    0.3943   -1.2135    0.0000 C   0  0  0  0  0  0  0  0  0  0  0  0
  1  2  1  0
  2  3  1  0
  3  4  2  0
  4  5  1  0
  5  6  2  0
  6  7  1  0
  7  8  2  0
  8  9  1  0
  9 10  1  0
  9 11  1  0
  9 12  1  0
  6 13  1  0
 13 14  1  0
 14 15  2  0
 14 16  1  0
 16 17  1  0
 17 18  2  0
 18 19  1  0
 19 20  2  0
 20 21  1  0
 21 22  2  0
 22 23  1  0
 23 24  2  0
 24 25  1  0
 25 26  2  0
 20 27  1  0
 27 28  2  0
 13 29  1  0
 29 30  1  0
  8  3  1  0
 28 17  1  0
 30  5  1  0
 26 21  1  0
M  END
>  <assay_chembl_id>  (5) 
CHEMBL617788

>  <assay_description>  (5) 
Displacement of [3H]5-HT from human 5-hydroxytryptamine 2B receptor expressed in HEK293 cells

>  <parent_molecule_chembl_id>  (5) 
CHEMBL277111

>  <canonical_smiles>  (5) 
COc1cc2c(cc1C(F)(F)F)N(C(=O)Nc1ccc(-c3cccnc3)nc1)CC2

>  <standard_type>  (5) 
Ki

>  <standard_relation>  (5) 
=

>  <standard_value>  (5) 
10.0

>  <standard_units>  (5) 
nM

>  <target_pref_name>  (5) 
Serotonin 2b (5-HT2b) receptor

>  <target_chembl_id>  (5) 
CHEMBL1833

>  <target_organism>  (5) 
Homo sapiens

>  <pchembl_median>  (5) 
8.85

$$$$
CHEMBL277732
     RDKit          2D

 32 35  0  0  0  0  0  0  0  0999 V2000
   -4.9294   -3.0000    0.0000 C   0  0  0  0  0  0  0  0  0  0  0  0
   -4.9294   -1.5000    0.0000 O   0  0  0  0  0  0  0  0  0  0  0  0
   -3.6304   -0.7500    0.0000 C   0  0  0  0  0  0  0  0  0  0  0  0
   -2.3313   -1.5000    0.0000 C   0  0  0  0  0  0  0  0  0  0  0  0
   -1.0323   -0.7500    0.0000 C   0  0  0  0  0  0  0  0  0  0  0  0
   -1.0323    0.7500    0.0000 C   0  0  0  0  0  0  0  0  0  0  0  0
   -2.3313    1.5000    0.0000 C   0  0  0  0  0  0  0  0  0  0  0  0
   -3.6304    0.7500    0.0000 C   0  0  0  0  0  0  0  0  0  0  0  0
   -4.9294    1.5000    0.0000 C   0  0  0  0  0  0  0  0  0  0  0  0
   -6.2284    2.2500    0.0000 F   0  0  0  0  0  0  0  0  0  0  0  0
   -4.1794    2.7990    0.0000 F   0  0  0  0  0  0  0  0  0  0  0  0
   -5.6794    0.2010    0.0000 F   0  0  0  0  0  0  0  0  0  0  0  0
    0.3943    1.2135    0.0000 N   0  0  0  0  0  0  0  0  0  0  0  0
    0.8578    2.6401    0.0000 C   0  0  0  0  0  0  0  0  0  0  0  0
   -0.1459    3.7548    0.0000 O   0  0  0  0  0  0  0  0  0  0  0  0
    2.3250    2.9520    0.0000 N   0  0  0  0  0  0  0  0  0  0  0  0
    2.7886    4.3786    0.0000 C   0  0  0  0  0  0  0  0  0  0  0  0
    4.2558    4.6904    0.0000 C   0  0  0  0  0  0  0  0  0  0  0  0
    4.7193    6.1170    0.0000 N   0  0  0  0  0  0  0  0  0  0  0  0
    3.7156    7.2317    0.0000 C   0  0  0  0  0  0  0  0  0  0  0  0
    2.2484    6.9199    0.0000 C   0  0  0  0  0  0  0  0  0  0  0  0
    1.2447    8.0346    0.0000 C   0  0  0  0  0  0  0  0  0  0  0  0
    1.7082    9.4612    0.0000 C   0  0  0  0  0  0  0  0  0  0  0  0
    0.7045   10.5759    0.0000 C   0  0  0  0  0  0  0  0  0  0  0  0
    1.1681   12.0025    0.0000 F   0  0  0  0  0  0  0  0  0  0  0  0
   -0.7627   10.2640    0.0000 C   0  0  0  0  0  0  0  0  0  0  0  0
   -1.2262    8.8374    0.0000 C   0  0  0  0  0  0  0  0  0  0  0  0
   -2.6934    8.5256    0.0000 F   0  0  0  0  0  0  0  0  0  0  0  0
   -0.2225    7.7227    0.0000 C   0  0  0  0  0  0  0  0  0  0  0  0
    1.7849    5.4933    0.0000 C   0  0  0  0  0  0  0  0  0  0  0  0
    1.2760    0.0000    0.0000 C   0  0  0  0  0  0  0  0  0  0  0  0
    0.3943   -1.2135    0.0000 C   0  0  0  0  0  0  0  0  0  0  0  0
  1  2  1  0
  2  3  1  0
  3  4  2  0
  4  5  1  0
  5  6  2  0
  6  7  1  0
  7  8  2  0
  8  9  1  0
  9 10  1  0
  9 11  1  0
  9 12  1  0
  6 13  1  0
 13 14  1  0
 14 15  2  0
 14 16  1  0
 16 17  1  0
 17 18  2  0
 18 19  1  0
 19 20  2  0
 20 21  1  0
 21 22  1  0
 22 23  2  0
 23 24  1  0
 24 25  1  0
 24 26  2  0
 26 27  1  0
 27 28  1  0
 27 29  2  0
 21 30  2  0
 13 31  1  0
 31 32  1  0
  8  3  1  0
 30 17  1  0
 32  5  1  0
 29 22  1  0
M  END
>  <assay_chembl_id>  (6) 
CHEMBL617788

>  <assay_description>  (6) 
Displacement of [3H]5-HT from human 5-hydroxytryptamine 2B receptor expressed in HEK293 cells

>  <parent_molecule_chembl_id>  (6) 
CHEMBL277732

>  <canonical_smiles>  (6) 
COc1cc2c(cc1C(F)(F)F)N(C(=O)Nc1cncc(-c3cc(F)cc(F)c3)c1)CC2

>  <standard_type>  (6) 
Ki

>  <standard_relation>  (6) 
=

>  <standard_value>  (6) 
501.19

>  <standard_units>  (6) 
nM

>  <target_pref_name>  (6) 
Serotonin 2b (5-HT2b) receptor

>  <target_chembl_id>  (6) 
CHEMBL1833

>  <target_organism>  (6) 
Homo sapiens

>  <pchembl_median>  (6) 
9.1

$$$$
CHEMBL428879
     RDKit          2D

 30 33  0  0  0  0  0  0  0  0999 V2000
   -4.9294   -3.0000    0.0000 C   0  0  0  0  0  0  0  0  0  0  0  0
   -4.9294   -1.5000    0.0000 S   0  0  0  0  0  0  0  0  0  0  0  0
   -3.6304   -0.7500    0.0000 C   0  0  0  0  0  0  0  0  0  0  0  0
   -2.3313   -1.5000    0.0000 C   0  0  0  0  0  0  0  0  0  0  0  0
   -1.0323   -0.7500    0.0000 C   0  0  0  0  0  0  0  0  0  0  0  0
   -1.0323    0.7500    0.0000 C   0  0  0  0  0  0  0  0  0  0  0  0
   -2.3313    1.5000    0.0000 C   0  0  0  0  0  0  0  0  0  0  0  0
   -3.6304    0.7500    0.0000 C   0  0  0  0  0  0  0  0  0  0  0  0
   -4.9294    1.5000    0.0000 C   0  0  0  0  0  0  0  0  0  0  0  0
   -6.2284    2.2500    0.0000 F   0  0  0  0  0  0  0  0  0  0  0  0
   -4.1794    2.7990    0.0000 F   0  0  0  0  0  0  0  0  0  0  0  0
   -5.6794    0.2010    0.0000 F   0  0  0  0  0  0  0  0  0  0  0  0
    0.3943    1.2135    0.0000 N   0  0  0  0  0  0  0  0  0  0  0  0
    0.8578    2.6401    0.0000 C   0  0  0  0  0  0  0  0  0  0  0  0
   -0.1459    3.7548    0.0000 O   0  0  0  0  0  0  0  0  0  0  0  0
    2.3250    2.9520    0.0000 N   0  0  0  0  0  0  0  0  0  0  0  0
    2.7886    4.3786    0.0000 C   0  0  0  0  0  0  0  0  0  0  0  0
    4.2558    4.6904    0.0000 C   0  0  0  0  0  0  0  0  0  0  0  0
    4.7193    6.1170    0.0000 C   0  0  0  0  0  0  0  0  0  0  0  0
    3.7156    7.2317    0.0000 C   0  0  0  0  0  0  0  0  0  0  0  0
    2.2484    6.9199    0.0000 C   0  0  0  0  0  0  0  0  0  0  0  0
    1.2447    8.0346    0.0000 C   0  0  0  0  0  0  0  0  0  0  0  0
    1.7082    9.4612    0.0000 C   0  0  0  0  0  0  0  0  0  0  0  0
    0.7045   10.5759    0.0000 C   0  0  0  0  0  0  0  0  0  0  0  0
   -0.7627   10.2640    0.0000 C   0  0  0  0  0  0  0  0  0  0  0  0
   -1.2262    8.8374    0.0000 N   0  0  0  0  0  0  0  0  0  0  0  0
   -0.2225    7.7227    0.0000 C   0  0  0  0  0  0  0  0  0  0  0  0
    1.7849    5.4933    0.0000 C   0  0  0  0  0  0  0  0  0  0  0  0
    1.2760    0.0000    0.0000 C   0  0  0  0  0  0  0  0  0  0  0  0
    0.3943   -1.2135    0.0000 C   0  0  0  0  0  0  0  0  0  0  0  0
  1  2  1  0
  2  3  1  0
  3  4  2  0
  4  5  1  0
  5  6  2  0
  6  7  1  0
  7  8  2  0
  8  9  1  0
  9 10  1  0
  9 11  1  0
  9 12  1  0
  6 13  1  0
 13 14  1  0
 14 15  2  0
 14 16  1  0
 16 17  1  0
 17 18  2  0
 18 19  1  0
 19 20  2  0
 20 21  1  0
 21 22  1  0
 22 23  2  0
 23 24  1  0
 24 25  2  0
 25 26  1  0
 26 27  2  0
 21 28  2  0
 13 29  1  0
 29 30  1  0
  8  3  1  0
 28 17  1  0
 30  5  1  0
 27 22  1  0
M  END
>  <assay_chembl_id>  (7) 
CHEMBL617788

>  <assay_description>  (7) 
Displacement of [3H]5-HT from human 5-hydroxytryptamine 2B receptor expressed in HEK293 cells

>  <parent_molecule_chembl_id>  (7) 
CHEMBL428879

>  <canonical_smiles>  (7) 
CSc1cc2c(cc1C(F)(F)F)N(C(=O)Nc1cccc(-c3cccnc3)c1)CC2

>  <standard_type>  (7) 
Ki

>  <standard_relation>  (7) 
=

>  <standard_value>  (7) 
7.943

>  <standard_units>  (7) 
nM

>  <target_pref_name>  (7) 
Serotonin 2b (5-HT2b) receptor

>  <target_chembl_id>  (7) 
CHEMBL1833

>  <target_organism>  (7) 
Homo sapiens

>  <pchembl_median>  (7) 
6.5

$$$$
CHEMBL14345
     RDKit          2D

 30 33  0  0  0  0  0  0  0  0999 V2000
   -4.9294   -3.0000    0.0000 C   0  0  0  0  0  0  0  0  0  0  0  0
   -4.9294   -1.5000    0.0000 O   0  0  0  0  0  0  0  0  0  0  0  0
   -3.6304   -0.7500    0.0000 C   0  0  0  0  0  0  0  0  0  0  0  0
   -2.3313   -1.5000    0.0000 C   0  0  0  0  0  0  0  0  0  0  0  0
   -1.0323   -0.7500    0.0000 C   0  0  0  0  0  0  0  0  0  0  0  0
   -1.0323    0.7500    0.0000 C   0  0  0  0  0  0  0  0  0  0  0  0
   -2.3313    1.5000    0.0000 C   0  0  0  0  0  0  0  0  0  0  0  0
   -3.6304    0.7500    0.0000 C   0  0  0  0  0  0  0  0  0  0  0  0
   -4.9294    1.5000    0.0000 C   0  0  0  0  0  0  0  0  0  0  0  0
   -6.2284    2.2500    0.0000 F   0  0  0  0  0  0  0  0  0  0  0  0
   -4.1794    2.7990    0.0000 F   0  0  0  0  0  0  0  0  0  0  0  0
   -5.6794    0.2010    0.0000 F   0  0  0  0  0  0  0  0  0  0  0  0
    0.3943    1.2135    0.0000 N   0  0  0  0  0  0  0  0  0  0  0  0
    0.8578    2.6401    0.0000 C   0  0  0  0  0  0  0  0  0  0  0  0
   -0.1459    3.7548    0.0000 O   0  0  0  0  0  0  0  0  0  0  0  0
    2.3250    2.9520    0.0000 N   0  0  0  0  0  0  0  0  0  0  0  0
    2.7886    4.3786    0.0000 C   0  0  0  0  0  0  0  0  0  0  0  0
    4.2558    4.6904    0.0000 C   0  0  0  0  0  0  0  0  0  0  0  0
    4.7193    6.1170    0.0000 N   0  0  0  0  0  0  0  0  0  0  0  0
    3.7156    7.2317    0.0000 C   0  0  0  0  0  0  0  0  0  0  0  0
    2.2484    6.9199    0.0000 C   0  0  0  0  0  0  0  0  0  0  0  0
    1.2447    8.0346    0.0000 C   0  0  0  0  0  0  0  0  0  0  0  0
    1.7082    9.4612    0.0000 C   0  0  0  0  0  0  0  0  0  0  0  0
    0.7045   10.5759    0.0000 C   0  0  0  0  0  0  0  0  0  0  0  0
   -0.7627   10.2640    0.0000 C   0  0  0  0  0  0  0  0  0  0  0  0
   -1.2262    8.8374    0.0000 N   0  0  0  0  0  0  0  0  0  0  0  0
   -0.2225    7.7227    0.0000 C   0  0  0  0  0  0  0  0  0  0  0  0
    1.7849    5.4933    0.0000 C   0  0  0  0  0  0  0  0  0  0  0  0
    1.2760    0.0000    0.0000 C   0  0  0  0  0  0  0  0  0  0  0  0
    0.3943   -1.2135    0.0000 C   0  0  0  0  0  0  0  0  0  0  0  0
  1  2  1  0
  2  3  1  0
  3  4  2  0
  4  5  1  0
  5  6  2  0
  6  7  1  0
  7  8  2  0
  8  9  1  0
  9 10  1  0
  9 11  1  0
  9 12  1  0
  6 13  1  0
 13 14  1  0
 14 15  2  0
 14 16  1  0
 16 17  1  0
 17 18  2  0
 18 19  1  0
 19 20  2  0
 20 21  1  0
 21 22  1  0
 22 23  2  0
 23 24  1  0
 24 25  2  0
 25 26  1  0
 26 27  2  0
 21 28  2  0
 13 29  1  0
 29 30  1  0
  8  3  1  0
 28 17  1  0
 30  5  1  0
 27 22  1  0
M  END
>  <assay_chembl_id>  (8) 
CHEMBL617788

>  <assay_description>  (8) 
Displacement of [3H]5-HT from human 5-hydroxytryptamine 2B receptor expressed in HEK293 cells

>  <parent_molecule_chembl_id>  (8) 
CHEMBL14345

>  <canonical_smiles>  (8) 
COc1cc2c(cc1C(F)(F)F)N(C(=O)Nc1cncc(-c3cccnc3)c1)CC2

>  <standard_type>  (8) 
Ki

>  <standard_relation>  (8) 
=

>  <standard_value>  (8) 
10.0

>  <standard_units>  (8) 
nM

>  <target_pref_name>  (8) 
Serotonin 2b (5-HT2b) receptor

>  <target_chembl_id>  (8) 
CHEMBL1833

>  <target_organism>  (8) 
Homo sapiens

>  <pchembl_median>  (8) 
5.8

$$$$
CHEMBL14864
     RDKit          2D

 31 34  0  0  0  0  0  0  0  0999 V2000
   -4.9294   -3.0000    0.0000 C   0  0  0  0  0  0  0  0  0  0  0  0
   -4.9294   -1.5000    0.0000 O   0  0  0  0  0  0  0  0  0  0  0  0
   -3.6304   -0.7500    0.0000 C   0  0  0  0  0  0  0  0  0  0  0  0
   -2.3313   -1.5000    0.0000 C   0  0  0  0  0  0  0  0  0  0  0  0
   -1.0323   -0.7500    0.0000 C   0  0  0  0  0  0  0  0  0  0  0  0
   -1.0323    0.7500    0.0000 C   0  0  0  0  0  0  0  0  0  0  0  0
   -2.3313    1.5000    0.0000 C   0  0  0  0  0  0  0  0  0  0  0  0
   -3.6304    0.7500    0.0000 C   0  0  0  0  0  0  0  0  0  0  0  0
   -4.9294    1.5000    0.0000 C   0  0  0  0  0  0  0  0  0  0  0  0
   -6.2284    2.2500    0.0000 F   0  0  0  0  0  0  0  0  0  0  0  0
   -4.1794    2.7990    0.0000 F   0  0  0  0  0  0  0  0  0  0  0  0
   -5.6794    0.2010    0.0000 F   0  0  0  0  0  0  0  0  0  0  0  0
    0.3943    1.2135    0.0000 N   0  0  0  0  0  0  0  0  0  0  0  0
    0.8578    2.6401    0.0000 C   0  0  0  0  0  0  0  0  0  0  0  0
   -0.1459    3.7548    0.0000 O   0  0  0  0  0  0  0  0  0  0  0  0
    2.3250    2.9520    0.0000 N   0  0  0  0  0  0  0  0  0  0  0  0
    2.7886    4.3786    0.0000 C   0  0  0  0  0  0  0  0  0  0  0  0
    4.2558    4.6904    0.0000 C   0  0  0  0  0  0  0  0  0  0  0  0
    4.7193    6.1170    0.0000 N   0  0  0  0  0  0  0  0  0  0  0  0
    3.7156    7.2317    0.0000 C   0  0  0  0  0  0  0  0  0  0  0  0
    2.2484    6.9199    0.0000 C   0  0  0  0  0  0  0  0  0  0  0  0
    1.2447    8.0346    0.0000 C   0  0  0  0  0  0  0  0  0  0  0  0
    1.7082    9.4612    0.0000 C   0  0  0  0  0  0  0  0  0  0  0  0
    0.7045   10.5759    0.0000 N   0  0  0  0  0  0  0  0  0  0  0  0
   -0.7627   10.2640    0.0000 C   0  0  0  0  0  0  0  0  0  0  0  0
   -1.2262    8.8374    0.0000 C   0  0  0  0  0  0  0  0  0  0  0  0
   -0.2225    7.7227    0.0000 C   0  0  0  0  0  0  0  0  0  0  0  0
   -0.6860    6.2961    0.0000 C   0  0  0  0  0  0  0  0  0  0  0  0
    1.7849    5.4933    0.0000 C   0  0  0  0  0  0  0  0  0  0  0  0
    1.2760    0.0000    0.0000 C   0  0  0  0  0  0  0  0  0  0  0  0
    0.3943   -1.2135    0.0000 C   0  0  0  0  0  0  0  0  0  0  0  0
  1  2  1  0
  2  3  1  0
  3  4  2  0
  4  5  1  0
  5  6  2  0
  6  7  1  0
  7  8  2  0
  8  9  1  0
  9 10  1  0
  9 11  1  0
  9 12  1  0
  6 13  1  0
 13 14  1  0
 14 15  2  0
 14 16  1  0
 16 17  1  0
 17 18  2  0
 18 19  1  0
 19 20  2  0
 20 21  1  0
 21 22  1  0
 22 23  2  0
 23 24  1  0
 24 25  2  0
 25 26  1  0
 26 27  2  0
 27 28  1  0
 21 29  2  0
 13 30  1  0
 30 31  1  0
  8  3  1  0
 29 17  1  0
 31  5  1  0
 27 22  1  0
M  END
>  <assay_chembl_id>  (9) 
CHEMBL617788

>  <assay_description>  (9) 
Displacement of [3H]5-HT from human 5-hydroxytryptamine 2B receptor expressed in HEK293 cells

>  <parent_molecule_chembl_id>  (9) 
CHEMBL14864

>  <canonical_smiles>  (9) 
COc1cc2c(cc1C(F)(F)F)N(C(=O)Nc1cncc(-c3cnccc3C)c1)CC2

>  <standard_type>  (9) 
Ki

>  <standard_relation>  (9) 
=

>  <standard_value>  (9) 
6.31

>  <standard_units>  (9) 
nM

>  <target_pref_name>  (9) 
Serotonin 2b (5-HT2b) receptor

>  <target_chembl_id>  (9) 
CHEMBL1833

>  <target_organism>  (9) 
Homo sapiens

>  <pchembl_median>  (9) 
6.2

$$$$
CHEMBL278685
     RDKit          2D

 32 35  0  0  0  0  0  0  0  0999 V2000
   -4.9294   -3.0000    0.0000 C   0  0  0  0  0  0  0  0  0  0  0  0
   -4.9294   -1.5000    0.0000 O   0  0  0  0  0  0  0  0  0  0  0  0
   -3.6304   -0.7500    0.0000 C   0  0  0  0  0  0  0  0  0  0  0  0
   -2.3313   -1.5000    0.0000 C   0  0  0  0  0  0  0  0  0  0  0  0
   -1.0323   -0.7500    0.0000 C   0  0  0  0  0  0  0  0  0  0  0  0
   -1.0323    0.7500    0.0000 C   0  0  0  0  0  0  0  0  0  0  0  0
   -2.3313    1.5000    0.0000 C   0  0  0  0  0  0  0  0  0  0  0  0
   -3.6304    0.7500    0.0000 C   0  0  0  0  0  0  0  0  0  0  0  0
   -4.9294    1.5000    0.0000 C   0  0  0  0  0  0  0  0  0  0  0  0
   -6.2284    2.2500    0.0000 F   0  0  0  0  0  0  0  0  0  0  0  0
   -4.1794    2.7990    0.0000 F   0  0  0  0  0  0  0  0  0  0  0  0
   -5.6794    0.2010    0.0000 F   0  0  0  0  0  0  0  0  0  0  0  0
    0.3943    1.2135    0.0000 N   0  0  0  0  0  0  0  0  0  0  0  0
    0.8578    2.6401    0.0000 C   0  0  0  0  0  0  0  0  0  0  0  0
   -0.1459    3.7548    0.0000 O   0  0  0  0  0  0  0  0  0  0  0  0
    2.3250    2.9520    0.0000 N   0  0  0  0  0  0  0  0  0  0  0  0
    2.7886    4.3786    0.0000 C   0  0  0  0  0  0  0  0  0  0  0  0
    4.2558    4.6904    0.0000 C   0  0  0  0  0  0  0  0  0  0  0  0
    4.7193    6.1170    0.0000 N   0  0  0  0  0  0  0  0  0  0  0  0
    3.7156    7.2317    0.0000 C   0  0  0  0  0  0  0  0  0  0  0  0
    2.2484    6.9199    0.0000 C   0  0  0  0  0  0  0  0  0  0  0  0
    1.2447    8.0346    0.0000 C   0  0  0  0  0  0  0  0  0  0  0  0
    1.7082    9.4612    0.0000 C   0  0  0  0  0  0  0  0  0  0  0  0
    3.1755    9.7730    0.0000 F   0  0  0  0  0  0  0  0  0  0  0  0
    0.7045   10.5759    0.0000 C   0  0  0  0  0  0  0  0  0  0  0  0
   -0.7627   10.2640    0.0000 C   0  0  0  0  0  0  0  0  0  0  0  0
   -1.2262    8.8374    0.0000 C   0  0  0  0  0  0  0  0  0  0  0  0
   -0.2225    7.7227    0.0000 C   0  0  0  0  0  0  0  0  0  0  0  0
   -0.6860    6.2961    0.0000 F   0  0  0  0  0  0  0  0  0  0  0  0
    1.7849    5.4933    0.0000 C   0  0  0  0  0  0  0  0  0  0  0  0
    1.2760    0.0000    0.0000 C   0  0  0  0  0  0  0  0  0  0  0  0
    0.3943   -1.2135    0.0000 C   0  0  0  0  0  0  0  0  0  0  0  0
  1  2  1  0
  2  3  1  0
  3  4  2  0
  4  5  1  0
  5  6  2  0
  6  7  1  0
  7  8  2  0
  8  9  1  0
  9 10  1  0
  9 11  1  0
  9 12  1  0
  6 13  1  0
 13 14  1  0
 14 15  2  0
 14 16  1  0
 16 17  1  0
 17 18  2  0
 18 19  1  0
 19 20  2  0
 20 21  1  0
 21 22  1  0
 22 23  2  0
 23 24  1  0
 23 25  1  0
 25 26  2  0
 26 27  1  0
 27 28  2  0
 28 29  1  0
 21 30  2  0
 13 31  1  0
 31 32  1  0
  8  3  1  0
 30 17  1  0
 32  5  1  0
 28 22  1  0
M  END
>  <assay_chembl_id>  (10) 
CHEMBL617788

>  <assay_description>  (10) 
Displacement of [3H]5-HT from human 5-hydroxytryptamine 2B receptor expressed in HEK293 cells

>  <parent_molecule_chembl_id>  (10) 
CHEMBL278685

>  <canonical_smiles>  (10) 
COc1cc2c(cc1C(F)(F)F)N(C(=O)Nc1cncc(-c3c(F)cccc3F)c1)CC2

>  <standard_type>  (10) 
Ki

>  <standard_relation>  (10) 
=

>  <standard_value>  (10) 
100.0

>  <standard_units>  (10) 
nM

>  <target_pref_name>  (10) 
Serotonin 2b (5-HT2b) receptor

>  <target_chembl_id>  (10) 
CHEMBL1833

>  <target_organism>  (10) 
Homo sapiens

>  <pchembl_median>  (10) 
7.5

$$$$
CHEMBL361929
     RDKit          2D

 16 18  0  0  0  0  0  0  0  0999 V2000
    3.0000    0.0000    0.0000 C   0  0  0  0  0  0  0  0  0  0  0  0
    1.5000    0.0000    0.0000 C   0  0  0  0  0  0  0  0  0  0  0  0
    0.7500   -1.2990    0.0000 C   0  0  0  0  0  0  0  0  0  0  0  0
   -0.7500   -1.2990    0.0000 N   0  0  0  0  0  0  0  0  0  0  0  0
   -1.5000    0.0000    0.0000 C   0  0  0  0  0  0  0  0  0  0  0  0
   -0.7500    1.2990    0.0000 C   0  0  0  0  0  0  0  0  0  0  0  0
   -1.2135    2.7256    0.0000 C   0  0  0  0  0  0  0  0  0  0  0  0
   -0.0000    3.6073    0.0000 C   0  0  0  0  0  0  0  0  0  0  0  0
    0.1568    5.0991    0.0000 C   0  0  0  0  0  0  0  0  0  0  0  0
    1.5271    5.7092    0.0000 C   0  0  0  0  0  0  0  0  0  0  0  0
    2.7406    4.8275    0.0000 C   0  0  0  0  0  0  0  0  0  0  0  0
    4.1110    5.4376    0.0000 C   0  0  0  0  0  0  0  0  0  0  0  0
    5.3245    4.5559    0.0000 O   0  0  0  0  0  0  0  0  0  0  0  0
    2.5838    3.3357    0.0000 C   0  0  0  0  0  0  0  0  0  0  0  0
    1.2135    2.7256    0.0000 C   0  0  0  0  0  0  0  0  0  0  0  0
    0.7500    1.2990    0.0000 N   0  0  0  0  0  0  0  0  0  0  0  0
  2  1  1  6
  2  3  1  0
  3  4  1  0
  4  5  1  0
  6  5  1  1
  6  7  1  0
  7  8  1  0
  8  9  2  0
  9 10  1  0
 10 11  2  0
 11 12  1  0
 12 13  1  0
 11 14  1  0
 14 15  2  0
 15 16  1  0
 16  2  1  0
 16  6  1  0
 15  8  1  0
M  END
>  <assay_chembl_id>  (11) 
CHEMBL828758

>  <assay_description>  (11) 
Binding affinity toward 5-HT2B receptor evaluated by displacement of [3H]5-HT radioligand 

>  <parent_molecule_chembl_id>  (11) 
CHEMBL361929

>  <canonical_smiles>  (11) 
C[C@@H]1CNC[C@H]2Cc3ccc(CO)cc3N12

>  <standard_type>  (11) 
Ki

>  <standard_relation>  (11) 
=

>  <standard_value>  (11) 
250.0

>  <standard_units>  (11) 
nM

>  <target_pref_name>  (11) 
Serotonin 2b (5-HT2b) receptor

>  <target_chembl_id>  (11) 
CHEMBL1833

>  <target_organism>  (11) 
Homo sapiens

>  <pchembl_median>  (11) 
7.6

$$$$
CHEMBL190584
     RDKit          2D

 15 17  0  0  0  0  0  0  0  0999 V2000
    3.0000    0.0000    0.0000 C   0  0  0  0  0  0  0  0  0  0  0  0
    1.5000    0.0000    0.0000 C   0  0  0  0  0  0  0  0  0  0  0  0
    0.7500   -1.2990    0.0000 C   0  0  0  0  0  0  0  0  0  0  0  0
   -0.7500   -1.2990    0.0000 C   0  0  0  0  0  0  0  0  0  0  0  0
   -1.5000    0.0000    0.0000 C   0  0  0  0  0  0  0  0  0  0  0  0
   -0.7500    1.2990    0.0000 C   0  0  0  0  0  0  0  0  0  0  0  0
    0.7500    1.2990    0.0000 C   0  0  0  0  0  0  0  0  0  0  0  0
    1.2135    2.7256    0.0000 N   0  0  0  0  0  0  0  0  0  0  0  0
    2.5838    3.3357    0.0000 C   0  0  0  0  0  0  0  0  0  0  0  0
    3.7974    2.4540    0.0000 C   0  0  0  0  0  0  0  0  0  0  0  0
    2.7406    4.8275    0.0000 C   0  0  0  0  0  0  0  0  0  0  0  0
    1.5271    5.7092    0.0000 N   0  0  0  0  0  0  0  0  0  0  0  0
    0.1568    5.0991    0.0000 C   0  0  0  0  0  0  0  0  0  0  0  0
    0.0000    3.6073    0.0000 C   0  0  0  0  0  0  0  0  0  0  0  0
   -1.2135    2.7256    0.0000 C   0  0  0  0  0  0  0  0  0  0  0  0
  1  2  1  0
  2  3  2  0
  3  4  1  0
  4  5  2  0
  5  6  1  0
  6  7  2  0
  7  8  1  0
  8  9  1  0
  9 10  1  1
  9 11  1  0
 11 12  1  0
 12 13  1  0
 14 13  1  6
 14 15  1  0
  7  2  1  0
 14  8  1  0
 15  6  1  0
M  END
>  <assay_chembl_id>  (12) 
CHEMBL828758

>  <assay_description>  (12) 
Binding affinity toward 5-HT2B receptor evaluated by displacement of [3H]5-HT radioligand 

>  <parent_molecule_chembl_id>  (12) 
CHEMBL190584

>  <canonical_smiles>  (12) 
Cc1cccc2c1N1[C@H](C)CNC[C@H]1C2

>  <standard_type>  (12) 
Ki

>  <standard_relation>  (12) 
=

>  <standard_value>  (12) 
59.0

>  <standard_units>  (12) 
nM

>  <target_pref_name>  (12) 
Serotonin 2b (5-HT2b) receptor

>  <target_chembl_id>  (12) 
CHEMBL1833

>  <target_organism>  (12) 
Homo sapiens

>  <pchembl_median>  (12) 
6.5

$$$$
CHEMBL188605
     RDKit          2D

 14 16  0  0  0  0  0  0  0  0999 V2000
    4.1110   -5.4376    0.0000 Cl  0  0  0  0  0  0  0  0  0  0  0  0
    2.7406   -4.8275    0.0000 C   0  0  0  0  0  0  0  0  0  0  0  0
    1.5271   -5.7092    0.0000 C   0  0  0  0  0  0  0  0  0  0  0  0
    0.1568   -5.0991    0.0000 C   0  0  0  0  0  0  0  0  0  0  0  0
    0.0000   -3.6073    0.0000 C   0  0  0  0  0  0  0  0  0  0  0  0
    1.2135   -2.7256    0.0000 C   0  0  0  0  0  0  0  0  0  0  0  0
    2.5838   -3.3357    0.0000 C   0  0  0  0  0  0  0  0  0  0  0  0
    0.7500   -1.2990    0.0000 N   0  0  0  0  0  0  0  0  0  0  0  0
    1.5000    0.0000    0.0000 C   0  0  0  0  0  0  0  0  0  0  0  0
    0.7500    1.2990    0.0000 C   0  0  0  0  0  0  0  0  0  0  0  0
   -0.7500    1.2990    0.0000 N   0  0  0  0  0  0  0  0  0  0  0  0
   -1.5000    0.0000    0.0000 C   0  0  0  0  0  0  0  0  0  0  0  0
   -0.7500   -1.2990    0.0000 C   0  0  0  0  0  0  0  0  0  0  0  0
   -1.2135   -2.7256    0.0000 C   0  0  0  0  0  0  0  0  0  0  0  0
  1  2  1  0
  2  3  2  0
  3  4  1  0
  4  5  2  0
  5  6  1  0
  6  7  2  0
  6  8  1  0
  8  9  1  0
  9 10  1  0
 10 11  1  0
 11 12  1  0
 12 13  1  0
 13 14  1  0
  7  2  1  0
 13  8  1  0
 14  5  1  0
M  END
>  <assay_chembl_id>  (13) 
CHEMBL828758

>  <assay_description>  (13) 
Binding affinity toward 5-HT2B receptor evaluated by displacement of [3H]5-HT radioligand 

>  <parent_molecule_chembl_id>  (13) 
CHEMBL188605

>  <canonical_smiles>  (13) 
Clc1ccc2c(c1)N1CCNCC1C2

>  <standard_type>  (13) 
Ki

>  <standard_relation>  (13) 
=

>  <standard_value>  (13) 
53.0

>  <standard_units>  (13) 
nM

>  <target_pref_name>  (13) 
Serotonin 2b (5-HT2b) receptor

>  <target_chembl_id>  (13) 
CHEMBL1833

>  <target_organism>  (13) 
Homo sapiens

>  <pchembl_median>  (13) 
6.8

$$$$
CHEMBL188033
     RDKit          2D

 16 18  0  0  0  0  0  0  0  0999 V2000
    4.1110   -5.4376    0.0000 C   0  0  0  0  0  0  0  0  0  0  0  0
    2.7406   -4.8275    0.0000 C   0  0  0  0  0  0  0  0  0  0  0  0
    1.5271   -5.7092    0.0000 C   0  0  0  0  0  0  0  0  0  0  0  0
    0.1568   -5.0991    0.0000 C   0  0  0  0  0  0  0  0  0  0  0  0
    0.0000   -3.6073    0.0000 C   0  0  0  0  0  0  0  0  0  0  0  0
    1.2135   -2.7256    0.0000 C   0  0  0  0  0  0  0  0  0  0  0  0
    2.5838   -3.3357    0.0000 C   0  0  0  0  0  0  0  0  0  0  0  0
    3.7974   -2.4540    0.0000 C   0  0  0  0  0  0  0  0  0  0  0  0
    0.7500   -1.2990    0.0000 N   0  0  0  0  0  0  0  0  0  0  0  0
    1.5000    0.0000    0.0000 C   0  0  0  0  0  0  0  0  0  0  0  0
    3.0000    0.0000    0.0000 C   0  0  0  0  0  0  0  0  0  0  0  0
    0.7500    1.2990    0.0000 C   0  0  0  0  0  0  0  0  0  0  0  0
   -0.7500    1.2990    0.0000 N   0  0  0  0  0  0  0  0  0  0  0  0
   -1.5000    0.0000    0.0000 C   0  0  0  0  0  0  0  0  0  0  0  0
   -0.7500   -1.2990    0.0000 C   0  0  0  0  0  0  0  0  0  0  0  0
   -1.2135   -2.7256    0.0000 C   0  0  0  0  0  0  0  0  0  0  0  0
  1  2  1  0
  2  3  2  0
  3  4  1  0
  4  5  2  0
  5  6  1  0
  6  7  2  0
  7  8  1  0
  6  9  1  0
  9 10  1  0
 10 11  1  1
 10 12  1  0
 12 13  1  0
 13 14  1  0
 15 14  1  6
 15 16  1  0
  7  2  1  0
 15  9  1  0
 16  5  1  0
M  END
>  <assay_chembl_id>  (14) 
CHEMBL828758

>  <assay_description>  (14) 
Binding affinity toward 5-HT2B receptor evaluated by displacement of [3H]5-HT radioligand 

>  <parent_molecule_chembl_id>  (14) 
CHEMBL188033

>  <canonical_smiles>  (14) 
Cc1ccc2c(c1C)N1[C@H](C)CNC[C@H]1C2

>  <standard_type>  (14) 
Ki

>  <standard_relation>  (14) 
=

>  <standard_value>  (14) 
13.0

>  <standard_units>  (14) 
nM

>  <target_pref_name>  (14) 
Serotonin 2b (5-HT2b) receptor

>  <target_chembl_id>  (14) 
CHEMBL1833

>  <target_organism>  (14) 
Homo sapiens

>  <pchembl_median>  (14) 
6.65

$$$$
CHEMBL364534
     RDKit          2D

 16 18  0  0  0  0  0  0  0  0999 V2000
   -4.1110   -5.4376    0.0000 C   0  0  0  0  0  0  0  0  0  0  0  0
   -2.7406   -4.8275    0.0000 C   0  0  0  0  0  0  0  0  0  0  0  0
   -1.5271   -5.7092    0.0000 C   0  0  0  0  0  0  0  0  0  0  0  0
   -0.1568   -5.0991    0.0000 C   0  0  0  0  0  0  0  0  0  0  0  0
   -0.0000   -3.6073    0.0000 C   0  0  0  0  0  0  0  0  0  0  0  0
   -1.2135   -2.7256    0.0000 C   0  0  0  0  0  0  0  0  0  0  0  0
   -2.5838   -3.3357    0.0000 C   0  0  0  0  0  0  0  0  0  0  0  0
   -3.7974   -2.4540    0.0000 C   0  0  0  0  0  0  0  0  0  0  0  0
   -0.7500   -1.2990    0.0000 N   0  0  0  0  0  0  0  0  0  0  0  0
    0.7500   -1.2990    0.0000 C   0  0  0  0  0  0  0  0  0  0  0  0
    1.5000    0.0000    0.0000 C   0  0  0  0  0  0  0  0  0  0  0  0
    0.7500    1.2990    0.0000 N   0  0  0  0  0  0  0  0  0  0  0  0
   -0.7500    1.2990    0.0000 C   0  0  0  0  0  0  0  0  0  0  0  0
   -1.5000    0.0000    0.0000 C   0  0  0  0  0  0  0  0  0  0  0  0
   -3.0000    0.0000    0.0000 C   0  0  0  0  0  0  0  0  0  0  0  0
    1.2135   -2.7256    0.0000 C   0  0  0  0  0  0  0  0  0  0  0  0
  1  2  1  0
  2  3  2  0
  3  4  1  0
  4  5  2  0
  5  6  1  0
  6  7  2  0
  7  8  1  0
  6  9  1  0
  9 10  1  0
 10 11  1  6
 11 12  1  0
 12 13  1  0
 13 14  1  0
 14 15  1  6
 10 16  1  0
  7  2  1  0
 14  9  1  0
 16  5  1  0
M  END
>  <assay_chembl_id>  (15) 
CHEMBL828758

>  <assay_description>  (15) 
Binding affinity toward 5-HT2B receptor evaluated by displacement of [3H]5-HT radioligand 

>  <parent_molecule_chembl_id>  (15) 
CHEMBL364534

>  <canonical_smiles>  (15) 
Cc1ccc2c(c1C)N1[C@H](CNC[C@H]1C)C2

>  <standard_type>  (15) 
Ki

>  <standard_relation>  (15) 
=

>  <standard_value>  (15) 
67.0

>  <standard_units>  (15) 
nM

>  <target_pref_name>  (15) 
Serotonin 2b (5-HT2b) receptor

>  <target_chembl_id>  (15) 
CHEMBL1833

>  <target_organism>  (15) 
Homo sapiens

>  <pchembl_median>  (15) 
6.25

$$$$
CHEMBL2096711
     RDKit          2D

 14 16  0  0  0  0  0  0  0  0999 V2000
   -3.7974   -2.4540    0.0000 C   0  0  0  0  0  0  0  0  0  0  0  0
   -2.5838   -3.3357    0.0000 C   0  0  0  0  0  0  0  0  0  0  0  0
   -2.7406   -4.8275    0.0000 C   0  0  0  0  0  0  0  0  0  0  0  0
   -1.5271   -5.7092    0.0000 N   0  0  0  0  0  0  0  0  0  0  0  0
   -0.1568   -5.0991    0.0000 C   0  0  0  0  0  0  0  0  0  0  0  0
   -0.0000   -3.6073    0.0000 C   0  0  0  0  0  0  0  0  0  0  0  0
    1.2135   -2.7256    0.0000 C   0  0  0  0  0  0  0  0  0  0  0  0
    0.7500   -1.2990    0.0000 C   0  0  0  0  0  0  0  0  0  0  0  0
    1.5000    0.0000    0.0000 C   0  0  0  0  0  0  0  0  0  0  0  0
    0.7500    1.2990    0.0000 C   0  0  0  0  0  0  0  0  0  0  0  0
   -0.7500    1.2990    0.0000 C   0  0  0  0  0  0  0  0  0  0  0  0
   -1.5000    0.0000    0.0000 C   0  0  0  0  0  0  0  0  0  0  0  0
   -0.7500   -1.2990    0.0000 C   0  0  0  0  0  0  0  0  0  0  0  0
   -1.2135   -2.7256    0.0000 N   0  0  0  0  0  0  0  0  0  0  0  0
  2  1  1  6
  2  3  1  0
  3  4  1  0
  4  5  1  0
  6  5  1  1
  6  7  1  0
  7  8  1  0
  8  9  2  0
  9 10  1  0
 10 11  2  0
 11 12  1  0
 12 13  2  0
 13 14  1  0
 14  2  1  0
 14  6  1  0
 13  8  1  0
M  END
>  <assay_chembl_id>  (16) 
CHEMBL828758

>  <assay_description>  (16) 
Binding affinity toward 5-HT2B receptor evaluated by displacement of [3H]5-HT radioligand 

>  <parent_molecule_chembl_id>  (16) 
CHEMBL2096711

>  <canonical_smiles>  (16) 
C[C@H]1CNC[C@@H]2Cc3ccccc3N12

>  <standard_type>  (16) 
Ki

>  <standard_relation>  (16) 
=

>  <standard_value>  (16) 
2600.0

>  <standard_units>  (16) 
nM

>  <target_pref_name>  (16) 
Serotonin 2b (5-HT2b) receptor

>  <target_chembl_id>  (16) 
CHEMBL1833

>  <target_organism>  (16) 
Homo sapiens

>  <pchembl_median>  (16) 
6.42

$$$$
CHEMBL2112055
     RDKit          2D

 14 16  0  0  0  0  0  0  0  0999 V2000
   -3.7974   -2.4540    0.0000 C   0  0  0  0  0  0  0  0  0  0  0  0
   -2.5838   -3.3357    0.0000 C   0  0  0  0  0  0  0  0  0  0  0  0
   -2.7406   -4.8275    0.0000 C   0  0  0  0  0  0  0  0  0  0  0  0
   -1.5271   -5.7092    0.0000 N   0  0  0  0  0  0  0  0  0  0  0  0
   -0.1568   -5.0991    0.0000 C   0  0  0  0  0  0  0  0  0  0  0  0
   -0.0000   -3.6073    0.0000 C   0  0  0  0  0  0  0  0  0  0  0  0
    1.2135   -2.7256    0.0000 C   0  0  0  0  0  0  0  0  0  0  0  0
    0.7500   -1.2990    0.0000 C   0  0  0  0  0  0  0  0  0  0  0  0
    1.5000    0.0000    0.0000 C   0  0  0  0  0  0  0  0  0  0  0  0
    0.7500    1.2990    0.0000 C   0  0  0  0  0  0  0  0  0  0  0  0
   -0.7500    1.2990    0.0000 C   0  0  0  0  0  0  0  0  0  0  0  0
   -1.5000    0.0000    0.0000 C   0  0  0  0  0  0  0  0  0  0  0  0
   -0.7500   -1.2990    0.0000 C   0  0  0  0  0  0  0  0  0  0  0  0
   -1.2135   -2.7256    0.0000 N   0  0  0  0  0  0  0  0  0  0  0  0
  2  1  1  1
  2  3  1  0
  3  4  1  0
  4  5  1  0
  6  5  1  6
  6  7  1  0
  7  8  1  0
  8  9  2  0
  9 10  1  0
 10 11  2  0
 11 12  1  0
 12 13  2  0
 13 14  1  0
 14  2  1  0
 14  6  1  0
 13  8  1  0
M  END
>  <assay_chembl_id>  (17) 
CHEMBL828758

>  <assay_description>  (17) 
Binding affinity toward 5-HT2B receptor evaluated by displacement of [3H]5-HT radioligand 

>  <parent_molecule_chembl_id>  (17) 
CHEMBL2112055

>  <canonical_smiles>  (17) 
C[C@@H]1CNC[C@H]2Cc3ccccc3N12

>  <standard_type>  (17) 
Ki

>  <standard_relation>  (17) 
=

>  <standard_value>  (17) 
15.0

>  <standard_units>  (17) 
nM

>  <target_pref_name>  (17) 
Serotonin 2b (5-HT2b) receptor

>  <target_chembl_id>  (17) 
CHEMBL1833

>  <target_organism>  (17) 
Homo sapiens

>  <pchembl_median>  (17) 
7.38

$$$$
CHEMBL191054
     RDKit          2D

 16 18  0  0  0  0  0  0  0  0999 V2000
   -3.7974   -2.4540    0.0000 C   0  0  0  0  0  0  0  0  0  0  0  0
   -2.5838   -3.3357    0.0000 C   0  0  0  0  0  0  0  0  0  0  0  0
   -2.7406   -4.8275    0.0000 C   0  0  0  0  0  0  0  0  0  0  0  0
   -4.1110   -5.4376    0.0000 Cl  0  0  0  0  0  0  0  0  0  0  0  0
   -1.5271   -5.7092    0.0000 C   0  0  0  0  0  0  0  0  0  0  0  0
   -0.1568   -5.0991    0.0000 C   0  0  0  0  0  0  0  0  0  0  0  0
   -0.0000   -3.6073    0.0000 C   0  0  0  0  0  0  0  0  0  0  0  0
   -1.2135   -2.7256    0.0000 C   0  0  0  0  0  0  0  0  0  0  0  0
   -0.7500   -1.2990    0.0000 N   0  0  0  0  0  0  0  0  0  0  0  0
    0.7500   -1.2990    0.0000 C   0  0  0  0  0  0  0  0  0  0  0  0
    1.5000    0.0000    0.0000 C   0  0  0  0  0  0  0  0  0  0  0  0
    0.7500    1.2990    0.0000 N   0  0  0  0  0  0  0  0  0  0  0  0
   -0.7500    1.2990    0.0000 C   0  0  0  0  0  0  0  0  0  0  0  0
   -1.5000    0.0000    0.0000 C   0  0  0  0  0  0  0  0  0  0  0  0
   -3.0000    0.0000    0.0000 C   0  0  0  0  0  0  0  0  0  0  0  0
    1.2135   -2.7256    0.0000 C   0  0  0  0  0  0  0  0  0  0  0  0
  1  2  1  0
  2  3  2  0
  3  4  1  0
  3  5  1  0
  5  6  2  0
  6  7  1  0
  7  8  2  0
  8  9  1  0
  9 10  1  0
 10 11  1  6
 11 12  1  0
 12 13  1  0
 13 14  1  0
 14 15  1  6
 10 16  1  0
  8  2  1  0
 14  9  1  0
 16  7  1  0
M  END
>  <assay_chembl_id>  (18) 
CHEMBL828758

>  <assay_description>  (18) 
Binding affinity toward 5-HT2B receptor evaluated by displacement of [3H]5-HT radioligand 

>  <parent_molecule_chembl_id>  (18) 
CHEMBL191054

>  <canonical_smiles>  (18) 
Cc1c(Cl)ccc2c1N1[C@H](CNC[C@H]1C)C2

>  <standard_type>  (18) 
Ki

>  <standard_relation>  (18) 
=

>  <standard_value>  (18) 
19.0

>  <standard_units>  (18) 
nM

>  <target_pref_name>  (18) 
Serotonin 2b (5-HT2b) receptor

>  <target_chembl_id>  (18) 
CHEMBL1833

>  <target_organism>  (18) 
Homo sapiens

>  <pchembl_median>  (18) 
6.31

$$$$
CHEMBL187739
     RDKit          2D

 15 17  0  0  0  0  0  0  0  0999 V2000
    3.7974   -2.4540    0.0000 C   0  0  0  0  0  0  0  0  0  0  0  0
    2.5838   -3.3357    0.0000 C   0  0  0  0  0  0  0  0  0  0  0  0
    2.7406   -4.8275    0.0000 C   0  0  0  0  0  0  0  0  0  0  0  0
    4.1110   -5.4376    0.0000 Cl  0  0  0  0  0  0  0  0  0  0  0  0
    1.5271   -5.7092    0.0000 C   0  0  0  0  0  0  0  0  0  0  0  0
    0.1568   -5.0991    0.0000 C   0  0  0  0  0  0  0  0  0  0  0  0
    0.0000   -3.6073    0.0000 C   0  0  0  0  0  0  0  0  0  0  0  0
    1.2135   -2.7256    0.0000 C   0  0  0  0  0  0  0  0  0  0  0  0
    0.7500   -1.2990    0.0000 N   0  0  0  0  0  0  0  0  0  0  0  0
    1.5000    0.0000    0.0000 C   0  0  0  0  0  0  0  0  0  0  0  0
    0.7500    1.2990    0.0000 C   0  0  0  0  0  0  0  0  0  0  0  0
   -0.7500    1.2990    0.0000 N   0  0  0  0  0  0  0  0  0  0  0  0
   -1.5000    0.0000    0.0000 C   0  0  0  0  0  0  0  0  0  0  0  0
   -0.7500   -1.2990    0.0000 C   0  0  0  0  0  0  0  0  0  0  0  0
   -1.2135   -2.7256    0.0000 C   0  0  0  0  0  0  0  0  0  0  0  0
  1  2  1  0
  2  3  2  0
  3  4  1  0
  3  5  1  0
  5  6  2  0
  6  7  1  0
  7  8  2  0
  8  9  1  0
  9 10  1  0
 10 11  1  0
 11 12  1  0
 12 13  1  0
 14 13  1  6
 14 15  1  0
  8  2  1  0
 14  9  1  0
 15  7  1  0
M  END
>  <assay_chembl_id>  (19) 
CHEMBL828758

>  <assay_description>  (19) 
Binding affinity toward 5-HT2B receptor evaluated by displacement of [3H]5-HT radioligand 

>  <parent_molecule_chembl_id>  (19) 
CHEMBL187739

>  <canonical_smiles>  (19) 
Cc1c(Cl)ccc2c1N1CCNC[C@H]1C2

>  <standard_type>  (19) 
Ki

>  <standard_relation>  (19) 
=

>  <standard_value>  (19) 
10.0

>  <standard_units>  (19) 
nM

>  <target_pref_name>  (19) 
Serotonin 2b (5-HT2b) receptor

>  <target_chembl_id>  (19) 
CHEMBL1833

>  <target_organism>  (19) 
Homo sapiens

>  <pchembl_median>  (19) 
5.79

$$$$
CHEMBL2096809
     RDKit          2D

 14 16  0  0  0  0  0  0  0  0999 V2000
   -3.7974   -2.4540    0.0000 C   0  0  0  0  0  0  0  0  0  0  0  0
   -2.5838   -3.3357    0.0000 C   0  0  0  0  0  0  0  0  0  0  0  0
   -2.7406   -4.8275    0.0000 C   0  0  0  0  0  0  0  0  0  0  0  0
   -1.5271   -5.7092    0.0000 N   0  0  0  0  0  0  0  0  0  0  0  0
   -0.1568   -5.0991    0.0000 C   0  0  0  0  0  0  0  0  0  0  0  0
   -0.0000   -3.6073    0.0000 C   0  0  0  0  0  0  0  0  0  0  0  0
    1.2135   -2.7256    0.0000 C   0  0  0  0  0  0  0  0  0  0  0  0
    0.7500   -1.2990    0.0000 C   0  0  0  0  0  0  0  0  0  0  0  0
    1.5000    0.0000    0.0000 C   0  0  0  0  0  0  0  0  0  0  0  0
    0.7500    1.2990    0.0000 C   0  0  0  0  0  0  0  0  0  0  0  0
   -0.7500    1.2990    0.0000 C   0  0  0  0  0  0  0  0  0  0  0  0
   -1.5000    0.0000    0.0000 C   0  0  0  0  0  0  0  0  0  0  0  0
   -0.7500   -1.2990    0.0000 C   0  0  0  0  0  0  0  0  0  0  0  0
   -1.2135   -2.7256    0.0000 N   0  0  0  0  0  0  0  0  0  0  0  0
  2  1  1  1
  2  3  1  0
  3  4  1  0
  4  5  1  0
  6  5  1  1
  6  7  1  0
  7  8  1  0
  8  9  2  0
  9 10  1  0
 10 11  2  0
 11 12  1  0
 12 13  2  0
 13 14  1  0
 14  2  1  0
 14  6  1  0
 13  8  1  0
M  END
>  <assay_chembl_id>  (20) 
CHEMBL828758

>  <assay_description>  (20) 
Binding affinity toward 5-HT2B receptor evaluated by displacement of [3H]5-HT radioligand 

>  <parent_molecule_chembl_id>  (20) 
CHEMBL2096809

>  <canonical_smiles>  (20) 
C[C@@H]1CNC[C@@H]2Cc3ccccc3N21

>  <standard_type>  (20) 
Ki

>  <standard_relation>  (20) 
=

>  <standard_value>  (20) 
210.0

>  <standard_units>  (20) 
nM

>  <target_pref_name>  (20) 
Serotonin 2b (5-HT2b) receptor

>  <target_chembl_id>  (20) 
CHEMBL1833

>  <target_organism>  (20) 
Homo sapiens

>  <pchembl_median>  (20) 
5.18

$$$$
CHEMBL425545
     RDKit          2D

 15 17  0  0  0  0  0  0  0  0999 V2000
    3.7974   -2.4540    0.0000 C   0  0  0  0  0  0  0  0  0  0  0  0
    2.5838   -3.3357    0.0000 C   0  0  0  0  0  0  0  0  0  0  0  0
    2.7406   -4.8275    0.0000 C   0  0  0  0  0  0  0  0  0  0  0  0
    4.1110   -5.4376    0.0000 Cl  0  0  0  0  0  0  0  0  0  0  0  0
    1.5271   -5.7092    0.0000 C   0  0  0  0  0  0  0  0  0  0  0  0
    0.1568   -5.0991    0.0000 C   0  0  0  0  0  0  0  0  0  0  0  0
    0.0000   -3.6073    0.0000 C   0  0  0  0  0  0  0  0  0  0  0  0
    1.2135   -2.7256    0.0000 C   0  0  0  0  0  0  0  0  0  0  0  0
    0.7500   -1.2990    0.0000 N   0  0  0  0  0  0  0  0  0  0  0  0
    1.5000    0.0000    0.0000 C   0  0  0  0  0  0  0  0  0  0  0  0
    0.7500    1.2990    0.0000 C   0  0  0  0  0  0  0  0  0  0  0  0
   -0.7500    1.2990    0.0000 N   0  0  0  0  0  0  0  0  0  0  0  0
   -1.5000    0.0000    0.0000 C   0  0  0  0  0  0  0  0  0  0  0  0
   -0.7500   -1.2990    0.0000 C   0  0  0  0  0  0  0  0  0  0  0  0
   -1.2135   -2.7256    0.0000 C   0  0  0  0  0  0  0  0  0  0  0  0
  1  2  1  0
  2  3  2  0
  3  4  1  0
  3  5  1  0
  5  6  2  0
  6  7  1  0
  7  8  2  0
  8  9  1  0
  9 10  1  0
 10 11  1  0
 11 12  1  0
 12 13  1  0
 14 13  1  1
 14 15  1  0
  8  2  1  0
 14  9  1  0
 15  7  1  0
M  END
>  <assay_chembl_id>  (21) 
CHEMBL828758

>  <assay_description>  (21) 
Binding affinity toward 5-HT2B receptor evaluated by displacement of [3H]5-HT radioligand 

>  <parent_molecule_chembl_id>  (21) 
CHEMBL425545

>  <canonical_smiles>  (21) 
Cc1c(Cl)ccc2c1N1CCNC[C@@H]1C2

>  <standard_type>  (21) 
Ki

>  <standard_relation>  (21) 
=

>  <standard_value>  (21) 
140.0

>  <standard_units>  (21) 
nM

>  <target_pref_name>  (21) 
Serotonin 2b (5-HT2b) receptor

>  <target_chembl_id>  (21) 
CHEMBL1833

>  <target_organism>  (21) 
Homo sapiens

>  <pchembl_median>  (21) 
5.75

$$$$
CHEMBL190124
     RDKit          2D

 15 17  0  0  0  0  0  0  0  0999 V2000
    3.0000    0.0000    0.0000 C   0  0  0  0  0  0  0  0  0  0  0  0
    1.5000    0.0000    0.0000 C   0  0  0  0  0  0  0  0  0  0  0  0
    0.7500   -1.2990    0.0000 C   0  0  0  0  0  0  0  0  0  0  0  0
   -0.7500   -1.2990    0.0000 C   0  0  0  0  0  0  0  0  0  0  0  0
   -1.5000    0.0000    0.0000 C   0  0  0  0  0  0  0  0  0  0  0  0
   -0.7500    1.2990    0.0000 C   0  0  0  0  0  0  0  0  0  0  0  0
    0.7500    1.2990    0.0000 C   0  0  0  0  0  0  0  0  0  0  0  0
   -1.7537    2.4138    0.0000 N   0  0  0  0  0  0  0  0  0  0  0  0
   -1.5969    3.9055    0.0000 C   0  0  0  0  0  0  0  0  0  0  0  0
   -0.2266    4.5156    0.0000 C   0  0  0  0  0  0  0  0  0  0  0  0
   -2.8104    4.7872    0.0000 C   0  0  0  0  0  0  0  0  0  0  0  0
   -4.1807    4.1771    0.0000 N   0  0  0  0  0  0  0  0  0  0  0  0
   -4.3375    2.6853    0.0000 C   0  0  0  0  0  0  0  0  0  0  0  0
   -3.1240    1.8037    0.0000 C   0  0  0  0  0  0  0  0  0  0  0  0
   -2.9672    0.3119    0.0000 C   0  0  0  0  0  0  0  0  0  0  0  0
  1  2  1  0
  2  3  2  0
  3  4  1  0
  4  5  2  0
  5  6  1  0
  6  7  2  0
  6  8  1  0
  8  9  1  0
  9 10  1  1
  9 11  1  0
 11 12  1  0
 12 13  1  0
 14 13  1  6
 14 15  1  0
  7  2  1  0
 14  8  1  0
 15  5  1  0
M  END
>  <assay_chembl_id>  (22) 
CHEMBL828758

>  <assay_description>  (22) 
Binding affinity toward 5-HT2B receptor evaluated by displacement of [3H]5-HT radioligand 

>  <parent_molecule_chembl_id>  (22) 
CHEMBL190124

>  <canonical_smiles>  (22) 
Cc1ccc2c(c1)N1[C@H](C)CNC[C@H]1C2

>  <standard_type>  (22) 
Ki

>  <standard_relation>  (22) 
=

>  <standard_value>  (22) 
21.0

>  <standard_units>  (22) 
nM

>  <target_pref_name>  (22) 
Serotonin 2b (5-HT2b) receptor

>  <target_chembl_id>  (22) 
CHEMBL1833

>  <target_organism>  (22) 
Homo sapiens

>  <pchembl_median>  (22) 
5.4

$$$$
CHEMBL361079
     RDKit          2D

 18 20  0  0  0  0  0  0  0  0999 V2000
    3.0000    0.0000    0.0000 C   0  0  0  0  0  0  0  0  0  0  0  0
    1.5000    0.0000    0.0000 C   0  0  0  0  0  0  0  0  0  0  0  0
    0.7500   -1.2990    0.0000 C   0  0  0  0  0  0  0  0  0  0  0  0
   -0.7500   -1.2990    0.0000 N   0  0  0  0  0  0  0  0  0  0  0  0
   -1.5000    0.0000    0.0000 C   0  0  0  0  0  0  0  0  0  0  0  0
   -0.7500    1.2990    0.0000 C   0  0  0  0  0  0  0  0  0  0  0  0
   -1.2135    2.7256    0.0000 C   0  0  0  0  0  0  0  0  0  0  0  0
   -0.0000    3.6073    0.0000 C   0  0  0  0  0  0  0  0  0  0  0  0
    0.1568    5.0991    0.0000 C   0  0  0  0  0  0  0  0  0  0  0  0
    1.5271    5.7092    0.0000 C   0  0  0  0  0  0  0  0  0  0  0  0
    2.7406    4.8275    0.0000 C   0  0  0  0  0  0  0  0  0  0  0  0
    4.1110    5.4376    0.0000 C   0  0  0  0  0  0  0  0  0  0  0  0
    5.4813    6.0477    0.0000 F   0  0  0  0  0  0  0  0  0  0  0  0
    4.7211    4.0673    0.0000 F   0  0  0  0  0  0  0  0  0  0  0  0
    3.5008    6.8079    0.0000 F   0  0  0  0  0  0  0  0  0  0  0  0
    2.5838    3.3357    0.0000 C   0  0  0  0  0  0  0  0  0  0  0  0
    1.2135    2.7256    0.0000 C   0  0  0  0  0  0  0  0  0  0  0  0
    0.7500    1.2990    0.0000 N   0  0  0  0  0  0  0  0  0  0  0  0
  2  1  1  6
  2  3  1  0
  3  4  1  0
  4  5  1  0
  6  5  1  1
  6  7  1  0
  7  8  1  0
  8  9  2  0
  9 10  1  0
 10 11  2  0
 11 12  1  0
 12 13  1  0
 12 14  1  0
 12 15  1  0
 11 16  1  0
 16 17  2  0
 17 18  1  0
 18  2  1  0
 18  6  1  0
 17  8  1  0
M  END
>  <assay_chembl_id>  (23) 
CHEMBL828758

>  <assay_description>  (23) 
Binding affinity toward 5-HT2B receptor evaluated by displacement of [3H]5-HT radioligand 

>  <parent_molecule_chembl_id>  (23) 
CHEMBL361079

>  <canonical_smiles>  (23) 
C[C@@H]1CNC[C@H]2Cc3ccc(C(F)(F)F)cc3N12

>  <standard_type>  (23) 
Ki

>  <standard_relation>  (23) 
=

>  <standard_value>  (23) 
11.0

>  <standard_units>  (23) 
nM

>  <target_pref_name>  (23) 
Serotonin 2b (5-HT2b) receptor

>  <target_chembl_id>  (23) 
CHEMBL1833

>  <target_organism>  (23) 
Homo sapiens

>  <pchembl_median>  (23) 
8.55

$$$$
CHEMBL187888
     RDKit          2D

 16 18  0  0  0  0  0  0  0  0999 V2000
    3.0000    0.0000    0.0000 C   0  0  0  0  0  0  0  0  0  0  0  0
    1.5000    0.0000    0.0000 C   0  0  0  0  0  0  0  0  0  0  0  0
    0.7500   -1.2990    0.0000 C   0  0  0  0  0  0  0  0  0  0  0  0
   -0.7500   -1.2990    0.0000 N   0  0  0  0  0  0  0  0  0  0  0  0
   -1.5000    0.0000    0.0000 C   0  0  0  0  0  0  0  0  0  0  0  0
   -0.7500    1.2990    0.0000 C   0  0  0  0  0  0  0  0  0  0  0  0
   -1.2135    2.7256    0.0000 C   0  0  0  0  0  0  0  0  0  0  0  0
   -0.0000    3.6073    0.0000 C   0  0  0  0  0  0  0  0  0  0  0  0
    0.1568    5.0991    0.0000 C   0  0  0  0  0  0  0  0  0  0  0  0
    1.5271    5.7092    0.0000 C   0  0  0  0  0  0  0  0  0  0  0  0
    2.7406    4.8275    0.0000 C   0  0  0  0  0  0  0  0  0  0  0  0
    4.1110    5.4376    0.0000 C   0  0  0  0  0  0  0  0  0  0  0  0
    5.4813    6.0477    0.0000 N   0  0  0  0  0  0  0  0  0  0  0  0
    2.5838    3.3357    0.0000 C   0  0  0  0  0  0  0  0  0  0  0  0
    1.2135    2.7256    0.0000 C   0  0  0  0  0  0  0  0  0  0  0  0
    0.7500    1.2990    0.0000 N   0  0  0  0  0  0  0  0  0  0  0  0
  2  1  1  6
  2  3  1  0
  3  4  1  0
  4  5  1  0
  6  5  1  1
  6  7  1  0
  7  8  1  0
  8  9  2  0
  9 10  1  0
 10 11  2  0
 11 12  1  0
 12 13  3  0
 11 14  1  0
 14 15  2  0
 15 16  1  0
 16  2  1  0
 16  6  1  0
 15  8  1  0
M  END
>  <assay_chembl_id>  (24) 
CHEMBL828758

>  <assay_description>  (24) 
Binding affinity toward 5-HT2B receptor evaluated by displacement of [3H]5-HT radioligand 

>  <parent_molecule_chembl_id>  (24) 
CHEMBL187888

>  <canonical_smiles>  (24) 
C[C@@H]1CNC[C@H]2Cc3ccc(C#N)cc3N12

>  <standard_type>  (24) 
Ki

>  <standard_relation>  (24) 
=

>  <standard_value>  (24) 
90.0

>  <standard_units>  (24) 
nM

>  <target_pref_name>  (24) 
Serotonin 2b (5-HT2b) receptor

>  <target_chembl_id>  (24) 
CHEMBL1833

>  <target_organism>  (24) 
Homo sapiens

>  <pchembl_median>  (24) 
7.18

$$$$
CHEMBL187787
     RDKit          2D

 18 20  0  0  0  0  0  0  0  0999 V2000
    5.2500   -1.2990    0.0000 C   0  0  0  0  0  0  0  0  0  0  0  0
    3.7500   -1.2990    0.0000 C   0  0  0  0  0  0  0  0  0  0  0  0
    3.0000   -2.5981    0.0000 O   0  0  0  0  0  0  0  0  0  0  0  0
    3.0000    0.0000    0.0000 N   0  0  0  0  0  0  0  0  0  0  0  0
    1.5000    0.0000    0.0000 C   0  0  0  0  0  0  0  0  0  0  0  0
    0.7500   -1.2990    0.0000 C   0  0  0  0  0  0  0  0  0  0  0  0
   -0.7500   -1.2990    0.0000 C   0  0  0  0  0  0  0  0  0  0  0  0
   -1.5000    0.0000    0.0000 C   0  0  0  0  0  0  0  0  0  0  0  0
   -0.7500    1.2990    0.0000 C   0  0  0  0  0  0  0  0  0  0  0  0
    0.7500    1.2990    0.0000 C   0  0  0  0  0  0  0  0  0  0  0  0
   -1.7537    2.4138    0.0000 N   0  0  0  0  0  0  0  0  0  0  0  0
   -1.5969    3.9055    0.0000 C   0  0  0  0  0  0  0  0  0  0  0  0
   -0.2266    4.5156    0.0000 C   0  0  0  0  0  0  0  0  0  0  0  0
   -2.8104    4.7872    0.0000 C   0  0  0  0  0  0  0  0  0  0  0  0
   -4.1807    4.1771    0.0000 N   0  0  0  0  0  0  0  0  0  0  0  0
   -4.3375    2.6853    0.0000 C   0  0  0  0  0  0  0  0  0  0  0  0
   -3.1240    1.8037    0.0000 C   0  0  0  0  0  0  0  0  0  0  0  0
   -2.9672    0.3119    0.0000 C   0  0  0  0  0  0  0  0  0  0  0  0
  1  2  1  0
  2  3  2  0
  2  4  1  0
  4  5  1  0
  5  6  2  0
  6  7  1  0
  7  8  2  0
  8  9  1  0
  9 10  2  0
  9 11  1  0
 11 12  1  0
 12 13  1  1
 12 14  1  0
 14 15  1  0
 15 16  1  0
 17 16  1  6
 17 18  1  0
 10  5  1  0
 17 11  1  0
 18  8  1  0
M  END
>  <assay_chembl_id>  (25) 
CHEMBL828758

>  <assay_description>  (25) 
Binding affinity toward 5-HT2B receptor evaluated by displacement of [3H]5-HT radioligand 

>  <parent_molecule_chembl_id>  (25) 
CHEMBL187787

>  <canonical_smiles>  (25) 
CC(=O)Nc1ccc2c(c1)N1[C@H](C)CNC[C@H]1C2

>  <standard_type>  (25) 
Ki

>  <standard_relation>  (25) 
=

>  <standard_value>  (25) 
960.0

>  <standard_units>  (25) 
nM

>  <target_pref_name>  (25) 
Serotonin 2b (5-HT2b) receptor

>  <target_chembl_id>  (25) 
CHEMBL1833

>  <target_organism>  (25) 
Homo sapiens

>  <pchembl_median>  (25) 
5.54

$$$$
CHEMBL134519
     RDKit          2D

 15 15  0  0  0  0  0  0  0  0999 V2000
    3.7500   -1.2990    0.0000 C   0  0  0  0  0  0  0  0  0  0  0  0
    3.0000    0.0000    0.0000 O   0  0  0  0  0  0  0  0  0  0  0  0
    1.5000    0.0000    0.0000 C   0  0  0  0  0  0  0  0  0  0  0  0
    0.7500   -1.2990    0.0000 C   0  0  0  0  0  0  0  0  0  0  0  0
   -0.7500   -1.2990    0.0000 C   0  0  0  0  0  0  0  0  0  0  0  0
   -1.5000   -2.5981    0.0000 C   0  0  0  0  0  0  0  0  0  0  0  0
   -3.0000   -2.5981    0.0000 C   0  0  0  0  0  0  0  0  0  0  0  0
   -3.7500   -3.8971    0.0000 C   0  0  0  0  0  0  0  0  0  0  0  0
   -3.7500   -1.2990    0.0000 N   0  0  0  0  0  0  0  0  0  0  0  0
   -1.5000    0.0000    0.0000 C   0  0  0  0  0  0  0  0  0  0  0  0
   -3.0000    0.0000    0.0000 O   0  0  0  0  0  0  0  0  0  0  0  0
   -3.7500    1.2990    0.0000 C   0  0  0  0  0  0  0  0  0  0  0  0
   -0.7500    1.2990    0.0000 C   0  0  0  0  0  0  0  0  0  0  0  0
    0.7500    1.2990    0.0000 C   0  0  0  0  0  0  0  0  0  0  0  0
    1.5000    2.5981    0.0000 I   0  0  0  0  0  0  0  0  0  0  0  0
  1  2  1  0
  2  3  1  0
  3  4  2  0
  4  5  1  0
  5  6  1  0
  6  7  1  0
  7  8  1  1
  7  9  1  0
  5 10  2  0
 10 11  1  0
 11 12  1  0
 10 13  1  0
 13 14  2  0
 14 15  1  0
 14  3  1  0
M  END
>  <assay_chembl_id>  (26) 
CHEMBL863543

>  <assay_description>  (26) 
Displacement of [125I]DOI from cloned human 5HT2B receptor expressed in CHO cells

>  <parent_molecule_chembl_id>  (26) 
CHEMBL134519

>  <canonical_smiles>  (26) 
COc1cc(C[C@@H](C)N)c(OC)cc1I

>  <standard_type>  (26) 
Ki

>  <standard_relation>  (26) 
=

>  <standard_value>  (26) 
18.0

>  <standard_units>  (26) 
nM

>  <target_pref_name>  (26) 
Serotonin 2b (5-HT2b) receptor

>  <target_chembl_id>  (26) 
CHEMBL1833

>  <target_organism>  (26) 
Homo sapiens

>  <pchembl_median>  (26) 
6.5

$$$$
CHEMBL275854
     RDKit          2D

 14 15  0  0  0  0  0  0  0  0999 V2000
   -4.3786   -5.1199    0.0000 C   0  0  0  0  0  0  0  0  0  0  0  0
   -2.9520   -4.6564    0.0000 C   0  0  0  0  0  0  0  0  0  0  0  0
   -1.8373   -5.6601    0.0000 N   0  0  0  0  0  0  0  0  0  0  0  0
   -2.6401   -3.1891    0.0000 C   0  0  0  0  0  0  0  0  0  0  0  0
   -1.2135   -2.7256    0.0000 C   0  0  0  0  0  0  0  0  0  0  0  0
   -0.0000   -3.6073    0.0000 C   0  0  0  0  0  0  0  0  0  0  0  0
    1.2135   -2.7256    0.0000 N   0  0  0  0  0  0  0  0  0  0  0  0
    0.7500   -1.2990    0.0000 C   0  0  0  0  0  0  0  0  0  0  0  0
    1.5000    0.0000    0.0000 C   0  0  0  0  0  0  0  0  0  0  0  0
    0.7500    1.2990    0.0000 C   0  0  0  0  0  0  0  0  0  0  0  0
   -0.7500    1.2990    0.0000 C   0  0  0  0  0  0  0  0  0  0  0  0
   -1.5000    2.5981    0.0000 O   0  0  0  0  0  0  0  0  0  0  0  0
   -1.5000    0.0000    0.0000 C   0  0  0  0  0  0  0  0  0  0  0  0
   -0.7500   -1.2990    0.0000 C   0  0  0  0  0  0  0  0  0  0  0  0
  1  2  1  0
  2  3  1  0
  2  4  1  0
  4  5  1  0
  5  6  2  0
  6  7  1  0
  7  8  1  0
  8  9  2  0
  9 10  1  0
 10 11  2  0
 11 12  1  0
 11 13  1  0
 13 14  2  0
 14  5  1  0
 14  8  1  0
M  END
>  <assay_chembl_id>  (27) 
CHEMBL863543

>  <assay_description>  (27) 
Displacement of [125I]DOI from cloned human 5HT2B receptor expressed in CHO cells

>  <parent_molecule_chembl_id>  (27) 
CHEMBL275854

>  <canonical_smiles>  (27) 
CC(N)Cc1c[nH]c2ccc(O)cc12

>  <standard_type>  (27) 
Ki

>  <standard_relation>  (27) 
=

>  <standard_value>  (27) 
13.0

>  <standard_units>  (27) 
nM

>  <target_pref_name>  (27) 
Serotonin 2b (5-HT2b) receptor

>  <target_chembl_id>  (27) 
CHEMBL1833

>  <target_organism>  (27) 
Homo sapiens

>  <pchembl_median>  (27) 
8.28

$$$$
CHEMBL199385
     RDKit          2D

 13 14  0  0  0  0  0  0  0  0999 V2000
   -4.3786   -5.1199    0.0000 N   0  0  0  0  0  0  0  0  0  0  0  0
   -2.9520   -4.6564    0.0000 C   0  0  0  0  0  0  0  0  0  0  0  0
   -2.6401   -3.1891    0.0000 C   0  0  0  0  0  0  0  0  0  0  0  0
   -1.2135   -2.7256    0.0000 N   0  0  0  0  0  0  0  0  0  0  0  0
   -0.0000   -3.6073    0.0000 N   0  0  0  0  0  0  0  0  0  0  0  0
    1.2135   -2.7256    0.0000 C   0  0  0  0  0  0  0  0  0  0  0  0
    0.7500   -1.2990    0.0000 C   0  0  0  0  0  0  0  0  0  0  0  0
    1.5000    0.0000    0.0000 C   0  0  0  0  0  0  0  0  0  0  0  0
    0.7500    1.2990    0.0000 C   0  0  0  0  0  0  0  0  0  0  0  0
   -0.7500    1.2990    0.0000 C   0  0  0  0  0  0  0  0  0  0  0  0
   -1.5000    2.5981    0.0000 O   0  0  0  0  0  0  0  0  0  0  0  0
   -1.5000    0.0000    0.0000 C   0  0  0  0  0  0  0  0  0  0  0  0
   -0.7500   -1.2990    0.0000 C   0  0  0  0  0  0  0  0  0  0  0  0
  1  2  1  0
  2  3  1  0
  3  4  1  0
  4  5  1  0
  5  6  2  0
  6  7  1  0
  7  8  2  0
  8  9  1  0
  9 10  2  0
 10 11  1  0
 10 12  1  0
 12 13  2  0
 13  4  1  0
 13  7  1  0
M  END
>  <assay_chembl_id>  (28) 
CHEMBL863543

>  <assay_description>  (28) 
Displacement of [125I]DOI from cloned human 5HT2B receptor expressed in CHO cells

>  <parent_molecule_chembl_id>  (28) 
CHEMBL199385

>  <canonical_smiles>  (28) 
NCCn1ncc2ccc(O)cc21

>  <standard_type>  (28) 
Ki

>  <standard_relation>  (28) 
=

>  <standard_value>  (28) 
15.0

>  <standard_units>  (28) 
nM

>  <target_pref_name>  (28) 
Serotonin 2b (5-HT2b) receptor

>  <target_chembl_id>  (28) 
CHEMBL1833

>  <target_organism>  (28) 
Homo sapiens

>  <pchembl_median>  (28) 
7.89

$$$$
CHEMBL371300
     RDKit          2D

 14 15  0  0  0  0  0  0  0  0999 V2000
   -4.3786   -5.1199    0.0000 C   0  0  0  0  0  0  0  0  0  0  0  0
   -2.9520   -4.6564    0.0000 C   0  0  0  0  0  0  0  0  0  0  0  0
   -1.8373   -5.6601    0.0000 N   0  0  0  0  0  0  0  0  0  0  0  0
   -2.6401   -3.1891    0.0000 C   0  0  0  0  0  0  0  0  0  0  0  0
   -1.2135   -2.7256    0.0000 N   0  0  0  0  0  0  0  0  0  0  0  0
   -0.0000   -3.6073    0.0000 N   0  0  0  0  0  0  0  0  0  0  0  0
    1.2135   -2.7256    0.0000 C   0  0  0  0  0  0  0  0  0  0  0  0
    0.7500   -1.2990    0.0000 C   0  0  0  0  0  0  0  0  0  0  0  0
    1.5000    0.0000    0.0000 C   0  0  0  0  0  0  0  0  0  0  0  0
    0.7500    1.2990    0.0000 C   0  0  0  0  0  0  0  0  0  0  0  0
   -0.7500    1.2990    0.0000 C   0  0  0  0  0  0  0  0  0  0  0  0
   -1.5000    2.5981    0.0000 O   0  0  0  0  0  0  0  0  0  0  0  0
   -1.5000    0.0000    0.0000 C   0  0  0  0  0  0  0  0  0  0  0  0
   -0.7500   -1.2990    0.0000 C   0  0  0  0  0  0  0  0  0  0  0  0
  2  1  1  1
  2  3  1  0
  2  4  1  0
  4  5  1  0
  5  6  1  0
  6  7  2  0
  7  8  1  0
  8  9  2  0
  9 10  1  0
 10 11  2  0
 11 12  1  0
 11 13  1  0
 13 14  2  0
 14  5  1  0
 14  8  1  0
M  END
>  <assay_chembl_id>  (29) 
CHEMBL863543

>  <assay_description>  (29) 
Displacement of [125I]DOI from cloned human 5HT2B receptor expressed in CHO cells

>  <parent_molecule_chembl_id>  (29) 
CHEMBL371300

>  <canonical_smiles>  (29) 
C[C@H](N)Cn1ncc2ccc(O)cc21

>  <standard_type>  (29) 
Ki

>  <standard_relation>  (29) 
=

>  <standard_value>  (29) 
8.1

>  <standard_units>  (29) 
nM

>  <target_pref_name>  (29) 
Serotonin 2b (5-HT2b) receptor

>  <target_chembl_id>  (29) 
CHEMBL1833

>  <target_organism>  (29) 
Homo sapiens

>  <pchembl_median>  (29) 
7.75

$$$$
CHEMBL437314
     RDKit          2D

 14 15  0  0  0  0  0  0  0  0999 V2000
   -4.3786   -5.1199    0.0000 C   0  0  0  0  0  0  0  0  0  0  0  0
   -2.9520   -4.6564    0.0000 C   0  0  0  0  0  0  0  0  0  0  0  0
   -1.8373   -5.6601    0.0000 N   0  0  0  0  0  0  0  0  0  0  0  0
   -2.6401   -3.1891    0.0000 C   0  0  0  0  0  0  0  0  0  0  0  0
   -1.2135   -2.7256    0.0000 N   0  0  0  0  0  0  0  0  0  0  0  0
   -0.0000   -3.6073    0.0000 N   0  0  0  0  0  0  0  0  0  0  0  0
    1.2135   -2.7256    0.0000 C   0  0  0  0  0  0  0  0  0  0  0  0
    0.7500   -1.2990    0.0000 C   0  0  0  0  0  0  0  0  0  0  0  0
    1.5000    0.0000    0.0000 C   0  0  0  0  0  0  0  0  0  0  0  0
    0.7500    1.2990    0.0000 C   0  0  0  0  0  0  0  0  0  0  0  0
   -0.7500    1.2990    0.0000 C   0  0  0  0  0  0  0  0  0  0  0  0
   -1.5000    2.5981    0.0000 O   0  0  0  0  0  0  0  0  0  0  0  0
   -1.5000    0.0000    0.0000 C   0  0  0  0  0  0  0  0  0  0  0  0
   -0.7500   -1.2990    0.0000 C   0  0  0  0  0  0  0  0  0  0  0  0
  2  1  1  6
  2  3  1  0
  2  4  1  0
  4  5  1  0
  5  6  1  0
  6  7  2  0
  7  8  1  0
  8  9  2  0
  9 10  1  0
 10 11  2  0
 11 12  1  0
 11 13  1  0
 13 14  2  0
 14  5  1  0
 14  8  1  0
M  END
>  <assay_chembl_id>  (30) 
CHEMBL863543

>  <assay_description>  (30) 
Displacement of [125I]DOI from cloned human 5HT2B receptor expressed in CHO cells

>  <parent_molecule_chembl_id>  (30) 
CHEMBL437314

>  <canonical_smiles>  (30) 
C[C@@H](N)Cn1ncc2ccc(O)cc21

>  <standard_type>  (30) 
Ki

>  <standard_relation>  (30) 
=

>  <standard_value>  (30) 
35.0

>  <standard_units>  (30) 
nM

>  <target_pref_name>  (30) 
Serotonin 2b (5-HT2b) receptor

>  <target_chembl_id>  (30) 
CHEMBL1833

>  <target_organism>  (30) 
Homo sapiens

>  <pchembl_median>  (30) 
7.72

$$$$
CHEMBL199775
     RDKit          2D

 15 16  0  0  0  0  0  0  0  0999 V2000
    3.7500   -1.2990    0.0000 C   0  0  0  0  0  0  0  0  0  0  0  0
    3.0000    0.0000    0.0000 O   0  0  0  0  0  0  0  0  0  0  0  0
    1.5000    0.0000    0.0000 C   0  0  0  0  0  0  0  0  0  0  0  0
    0.7500   -1.2990    0.0000 C   0  0  0  0  0  0  0  0  0  0  0  0
   -0.7500   -1.2990    0.0000 C   0  0  0  0  0  0  0  0  0  0  0  0
   -1.5000    0.0000    0.0000 C   0  0  0  0  0  0  0  0  0  0  0  0
   -2.9672    0.3119    0.0000 C   0  0  0  0  0  0  0  0  0  0  0  0
   -3.1240    1.8037    0.0000 N   0  0  0  0  0  0  0  0  0  0  0  0
   -1.7537    2.4138    0.0000 N   0  0  0  0  0  0  0  0  0  0  0  0
   -1.4418    3.8810    0.0000 C   0  0  0  0  0  0  0  0  0  0  0  0
   -2.5565    4.8847    0.0000 C   0  0  0  0  0  0  0  0  0  0  0  0
   -2.2447    6.3519    0.0000 C   0  0  0  0  0  0  0  0  0  0  0  0
   -3.9831    4.4211    0.0000 N   0  0  0  0  0  0  0  0  0  0  0  0
   -0.7500    1.2990    0.0000 C   0  0  0  0  0  0  0  0  0  0  0  0
    0.7500    1.2990    0.0000 C   0  0  0  0  0  0  0  0  0  0  0  0
  1  2  1  0
  2  3  1  0
  3  4  2  0
  4  5  1  0
  5  6  2  0
  6  7  1  0
  7  8  2  0
  8  9  1  0
  9 10  1  0
 10 11  1  0
 11 12  1  1
 11 13  1  0
  9 14  1  0
 14 15  2  0
 15  3  1  0
 14  6  1  0
M  END
>  <assay_chembl_id>  (31) 
CHEMBL863543

>  <assay_description>  (31) 
Displacement of [125I]DOI from cloned human 5HT2B receptor expressed in CHO cells

>  <parent_molecule_chembl_id>  (31) 
CHEMBL199775

>  <canonical_smiles>  (31) 
COc1ccc2cnn(C[C@H](C)N)c2c1

>  <standard_type>  (31) 
Ki

>  <standard_relation>  (31) 
=

>  <standard_value>  (31) 
7.5

>  <standard_units>  (31) 
nM

>  <target_pref_name>  (31) 
Serotonin 2b (5-HT2b) receptor

>  <target_chembl_id>  (31) 
CHEMBL1833

>  <target_organism>  (31) 
Homo sapiens

>  <pchembl_median>  (31) 
7.7

$$$$
CHEMBL200104
     RDKit          2D

 15 16  0  0  0  0  0  0  0  0999 V2000
   -3.5736    1.2902    0.0000 C   0  0  0  0  0  0  0  0  0  0  0  0
   -2.1470    1.7537    0.0000 C   0  0  0  0  0  0  0  0  0  0  0  0
   -1.8351    3.2209    0.0000 C   0  0  0  0  0  0  0  0  0  0  0  0
   -2.9499    4.2246    0.0000 O   0  0  0  0  0  0  0  0  0  0  0  0
   -0.4086    3.6844    0.0000 C   0  0  0  0  0  0  0  0  0  0  0  0
    0.7062    2.6807    0.0000 C   0  0  0  0  0  0  0  0  0  0  0  0
    0.3943    1.2135    0.0000 C   0  0  0  0  0  0  0  0  0  0  0  0
    1.2760    0.0000    0.0000 C   0  0  0  0  0  0  0  0  0  0  0  0
    0.3943   -1.2135    0.0000 N   0  0  0  0  0  0  0  0  0  0  0  0
   -1.0323   -0.7500    0.0000 N   0  0  0  0  0  0  0  0  0  0  0  0
   -2.2458   -1.6317    0.0000 C   0  0  0  0  0  0  0  0  0  0  0  0
   -2.0890   -3.1235    0.0000 C   0  0  0  0  0  0  0  0  0  0  0  0
   -3.3025   -4.0051    0.0000 C   0  0  0  0  0  0  0  0  0  0  0  0
   -0.7187   -3.7336    0.0000 N   0  0  0  0  0  0  0  0  0  0  0  0
   -1.0323    0.7500    0.0000 C   0  0  0  0  0  0  0  0  0  0  0  0
  1  2  1  0
  2  3  2  0
  3  4  1  0
  3  5  1  0
  5  6  2  0
  6  7  1  0
  7  8  1  0
  8  9  2  0
  9 10  1  0
 10 11  1  0
 11 12  1  0
 12 13  1  1
 12 14  1  0
 10 15  1  0
 15  2  1  0
 15  7  2  0
M  END
>  <assay_chembl_id>  (32) 
CHEMBL863543

>  <assay_description>  (32) 
Displacement of [125I]DOI from cloned human 5HT2B receptor expressed in CHO cells

>  <parent_molecule_chembl_id>  (32) 
CHEMBL200104

>  <canonical_smiles>  (32) 
Cc1c(O)ccc2cnn(C[C@H](C)N)c12

>  <standard_type>  (32) 
Ki

>  <standard_relation>  (32) 
=

>  <standard_value>  (32) 
8.7

>  <standard_units>  (32) 
nM

>  <target_pref_name>  (32) 
Serotonin 2b (5-HT2b) receptor

>  <target_chembl_id>  (32) 
CHEMBL1833

>  <target_organism>  (32) 
Homo sapiens

>  <pchembl_median>  (32) 
8.66

$$$$
CHEMBL197653
     RDKit          2D

 15 16  0  0  0  0  0  0  0  0999 V2000
    5.0260    1.2990    0.0000 C   0  0  0  0  0  0  0  0  0  0  0  0
    3.5260    1.2990    0.0000 C   0  0  0  0  0  0  0  0  0  0  0  0
    2.7760    2.5981    0.0000 N   0  0  0  0  0  0  0  0  0  0  0  0
    2.7760    0.0000    0.0000 C   0  0  0  0  0  0  0  0  0  0  0  0
    1.2760    0.0000    0.0000 N   0  0  0  0  0  0  0  0  0  0  0  0
    0.3943    1.2135    0.0000 N   0  0  0  0  0  0  0  0  0  0  0  0
   -1.0323    0.7500    0.0000 C   0  0  0  0  0  0  0  0  0  0  0  0
   -1.0323   -0.7500    0.0000 C   0  0  0  0  0  0  0  0  0  0  0  0
   -2.1470   -1.7537    0.0000 C   0  0  0  0  0  0  0  0  0  0  0  0
   -1.8351   -3.2209    0.0000 C   0  0  0  0  0  0  0  0  0  0  0  0
   -0.4086   -3.6844    0.0000 C   0  0  0  0  0  0  0  0  0  0  0  0
   -0.0967   -5.1517    0.0000 O   0  0  0  0  0  0  0  0  0  0  0  0
    0.7062   -2.6807    0.0000 C   0  0  0  0  0  0  0  0  0  0  0  0
    2.1328   -3.1443    0.0000 F   0  0  0  0  0  0  0  0  0  0  0  0
    0.3943   -1.2135    0.0000 C   0  0  0  0  0  0  0  0  0  0  0  0
  2  1  1  1
  2  3  1  0
  2  4  1  0
  4  5  1  0
  5  6  1  0
  6  7  2  0
  7  8  1  0
  8  9  2  0
  9 10  1  0
 10 11  2  0
 11 12  1  0
 11 13  1  0
 13 14  1  0
 13 15  2  0
 15  5  1  0
 15  8  1  0
M  END
>  <assay_chembl_id>  (33) 
CHEMBL863543

>  <assay_description>  (33) 
Displacement of [125I]DOI from cloned human 5HT2B receptor expressed in CHO cells

>  <parent_molecule_chembl_id>  (33) 
CHEMBL197653

>  <canonical_smiles>  (33) 
C[C@H](N)Cn1ncc2ccc(O)c(F)c21

>  <standard_type>  (33) 
Ki

>  <standard_relation>  (33) 
=

>  <standard_value>  (33) 
1.7

>  <standard_units>  (33) 
nM

>  <target_pref_name>  (33) 
Serotonin 2b (5-HT2b) receptor

>  <target_chembl_id>  (33) 
CHEMBL1833

>  <target_organism>  (33) 
Homo sapiens

>  <pchembl_median>  (33) 
8.0

$$$$
CHEMBL373245
     RDKit          2D

 15 16  0  0  0  0  0  0  0  0999 V2000
    5.0260    1.2990    0.0000 C   0  0  0  0  0  0  0  0  0  0  0  0
    3.5260    1.2990    0.0000 C   0  0  0  0  0  0  0  0  0  0  0  0
    2.7760    2.5981    0.0000 N   0  0  0  0  0  0  0  0  0  0  0  0
    2.7760    0.0000    0.0000 C   0  0  0  0  0  0  0  0  0  0  0  0
    1.2760    0.0000    0.0000 N   0  0  0  0  0  0  0  0  0  0  0  0
    0.3943    1.2135    0.0000 N   0  0  0  0  0  0  0  0  0  0  0  0
   -1.0323    0.7500    0.0000 C   0  0  0  0  0  0  0  0  0  0  0  0
   -1.0323   -0.7500    0.0000 C   0  0  0  0  0  0  0  0  0  0  0  0
   -2.1470   -1.7537    0.0000 C   0  0  0  0  0  0  0  0  0  0  0  0
   -1.8351   -3.2209    0.0000 C   0  0  0  0  0  0  0  0  0  0  0  0
   -0.4086   -3.6844    0.0000 C   0  0  0  0  0  0  0  0  0  0  0  0
   -0.0967   -5.1517    0.0000 O   0  0  0  0  0  0  0  0  0  0  0  0
    0.7062   -2.6807    0.0000 C   0  0  0  0  0  0  0  0  0  0  0  0
    2.1328   -3.1443    0.0000 Cl  0  0  0  0  0  0  0  0  0  0  0  0
    0.3943   -1.2135    0.0000 C   0  0  0  0  0  0  0  0  0  0  0  0
  2  1  1  1
  2  3  1  0
  2  4  1  0
  4  5  1  0
  5  6  1  0
  6  7  2  0
  7  8  1  0
  8  9  2  0
  9 10  1  0
 10 11  2  0
 11 12  1  0
 11 13  1  0
 13 14  1  0
 13 15  2  0
 15  5  1  0
 15  8  1  0
M  END
>  <assay_chembl_id>  (34) 
CHEMBL863543

>  <assay_description>  (34) 
Displacement of [125I]DOI from cloned human 5HT2B receptor expressed in CHO cells

>  <parent_molecule_chembl_id>  (34) 
CHEMBL373245

>  <canonical_smiles>  (34) 
C[C@H](N)Cn1ncc2ccc(O)c(Cl)c21

>  <standard_type>  (34) 
Ki

>  <standard_relation>  (34) 
=

>  <standard_value>  (34) 
3.8

>  <standard_units>  (34) 
nM

>  <target_pref_name>  (34) 
Serotonin 2b (5-HT2b) receptor

>  <target_chembl_id>  (34) 
CHEMBL1833

>  <target_organism>  (34) 
Homo sapiens

>  <pchembl_median>  (34) 
7.2

$$$$
CHEMBL201132
     RDKit          2D

 15 16  0  0  0  0  0  0  0  0999 V2000
    5.0260    1.2990    0.0000 C   0  0  0  0  0  0  0  0  0  0  0  0
    3.5260    1.2990    0.0000 C   0  0  0  0  0  0  0  0  0  0  0  0
    2.7760    2.5981    0.0000 N   0  0  0  0  0  0  0  0  0  0  0  0
    2.7760    0.0000    0.0000 C   0  0  0  0  0  0  0  0  0  0  0  0
    1.2760    0.0000    0.0000 N   0  0  0  0  0  0  0  0  0  0  0  0
    0.3943    1.2135    0.0000 N   0  0  0  0  0  0  0  0  0  0  0  0
   -1.0323    0.7500    0.0000 C   0  0  0  0  0  0  0  0  0  0  0  0
   -1.0323   -0.7500    0.0000 C   0  0  0  0  0  0  0  0  0  0  0  0
   -2.1470   -1.7537    0.0000 C   0  0  0  0  0  0  0  0  0  0  0  0
   -1.8351   -3.2209    0.0000 C   0  0  0  0  0  0  0  0  0  0  0  0
   -0.4086   -3.6844    0.0000 C   0  0  0  0  0  0  0  0  0  0  0  0
   -0.0967   -5.1517    0.0000 O   0  0  0  0  0  0  0  0  0  0  0  0
    0.7062   -2.6807    0.0000 C   0  0  0  0  0  0  0  0  0  0  0  0
    2.1328   -3.1443    0.0000 I   0  0  0  0  0  0  0  0  0  0  0  0
    0.3943   -1.2135    0.0000 C   0  0  0  0  0  0  0  0  0  0  0  0
  2  1  1  1
  2  3  1  0
  2  4  1  0
  4  5  1  0
  5  6  1  0
  6  7  2  0
  7  8  1  0
  8  9  2  0
  9 10  1  0
 10 11  2  0
 11 12  1  0
 11 13  1  0
 13 14  1  0
 13 15  2  0
 15  5  1  0
 15  8  1  0
M  END
>  <assay_chembl_id>  (35) 
CHEMBL863543

>  <assay_description>  (35) 
Displacement of [125I]DOI from cloned human 5HT2B receptor expressed in CHO cells

>  <parent_molecule_chembl_id>  (35) 
CHEMBL201132

>  <canonical_smiles>  (35) 
C[C@H](N)Cn1ncc2ccc(O)c(I)c21

>  <standard_type>  (35) 
Ki

>  <standard_relation>  (35) 
=

>  <standard_value>  (35) 
6.0

>  <standard_units>  (35) 
nM

>  <target_pref_name>  (35) 
Serotonin 2b (5-HT2b) receptor

>  <target_chembl_id>  (35) 
CHEMBL1833

>  <target_organism>  (35) 
Homo sapiens

>  <pchembl_median>  (35) 
7.0

$$$$
CHEMBL7257
     RDKit          2D

 16 17  0  0  0  0  0  0  0  0999 V2000
    3.7500   -1.2990    0.0000 C   0  0  0  0  0  0  0  0  0  0  0  0
    3.0000    0.0000    0.0000 O   0  0  0  0  0  0  0  0  0  0  0  0
    1.5000    0.0000    0.0000 C   0  0  0  0  0  0  0  0  0  0  0  0
    0.7500   -1.2990    0.0000 C   0  0  0  0  0  0  0  0  0  0  0  0
   -0.7500   -1.2990    0.0000 C   0  0  0  0  0  0  0  0  0  0  0  0
   -1.5000    0.0000    0.0000 C   0  0  0  0  0  0  0  0  0  0  0  0
   -2.9672    0.3119    0.0000 N   0  0  0  0  0  0  0  0  0  0  0  0
   -3.1240    1.8037    0.0000 C   0  0  0  0  0  0  0  0  0  0  0  0
   -1.7537    2.4138    0.0000 C   0  0  0  0  0  0  0  0  0  0  0  0
   -1.4418    3.8810    0.0000 C   0  0  0  0  0  0  0  0  0  0  0  0
   -2.5565    4.8847    0.0000 C   0  0  0  0  0  0  0  0  0  0  0  0
   -2.2447    6.3519    0.0000 N   0  0  0  0  0  0  0  0  0  0  0  0
   -3.3594    7.3556    0.0000 C   0  0  0  0  0  0  0  0  0  0  0  0
   -0.8181    6.8154    0.0000 C   0  0  0  0  0  0  0  0  0  0  0  0
   -0.7500    1.2990    0.0000 C   0  0  0  0  0  0  0  0  0  0  0  0
    0.7500    1.2990    0.0000 C   0  0  0  0  0  0  0  0  0  0  0  0
  1  2  1  0
  2  3  1  0
  3  4  2  0
  4  5  1  0
  5  6  2  0
  6  7  1  0
  7  8  1  0
  8  9  2  0
  9 10  1  0
 10 11  1  0
 11 12  1  0
 12 13  1  0
 12 14  1  0
  9 15  1  0
 15 16  2  0
 16  3  1  0
 15  6  1  0
M  END
>  <assay_chembl_id>  (36) 
CHEMBL863543

>  <assay_description>  (36) 
Displacement of [125I]DOI from cloned human 5HT2B receptor expressed in CHO cells

>  <parent_molecule_chembl_id>  (36) 
CHEMBL7257

>  <canonical_smiles>  (36) 
COc1ccc2[nH]cc(CCN(C)C)c2c1

>  <standard_type>  (36) 
Ki

>  <standard_relation>  (36) 
=

>  <standard_value>  (36) 
52.0

>  <standard_units>  (36) 
nM

>  <target_pref_name>  (36) 
Serotonin 2b (5-HT2b) receptor

>  <target_chembl_id>  (36) 
CHEMBL1833

>  <target_organism>  (36) 
Homo sapiens

>  <pchembl_median>  (36) 
7.0

$$$$
CHEMBL31115
     RDKit          2D

 15 16  0  0  0  0  0  0  0  0999 V2000
    3.7500   -1.2990    0.0000 C   0  0  0  0  0  0  0  0  0  0  0  0
    3.0000    0.0000    0.0000 O   0  0  0  0  0  0  0  0  0  0  0  0
    1.5000    0.0000    0.0000 C   0  0  0  0  0  0  0  0  0  0  0  0
    0.7500   -1.2990    0.0000 C   0  0  0  0  0  0  0  0  0  0  0  0
   -0.7500   -1.2990    0.0000 C   0  0  0  0  0  0  0  0  0  0  0  0
   -1.5000    0.0000    0.0000 C   0  0  0  0  0  0  0  0  0  0  0  0
   -2.9672    0.3119    0.0000 N   0  0  0  0  0  0  0  0  0  0  0  0
   -3.1240    1.8037    0.0000 C   0  0  0  0  0  0  0  0  0  0  0  0
   -1.7537    2.4138    0.0000 C   0  0  0  0  0  0  0  0  0  0  0  0
   -1.4418    3.8810    0.0000 C   0  0  0  0  0  0  0  0  0  0  0  0
   -2.5565    4.8847    0.0000 C   0  0  0  0  0  0  0  0  0  0  0  0
   -2.2447    6.3519    0.0000 C   0  0  0  0  0  0  0  0  0  0  0  0
   -3.9831    4.4211    0.0000 N   0  0  0  0  0  0  0  0  0  0  0  0
   -0.7500    1.2990    0.0000 C   0  0  0  0  0  0  0  0  0  0  0  0
    0.7500    1.2990    0.0000 C   0  0  0  0  0  0  0  0  0  0  0  0
  1  2  1  0
  2  3  1  0
  3  4  2  0
  4  5  1  0
  5  6  2  0
  6  7  1  0
  7  8  1  0
  8  9  2  0
  9 10  1  0
 10 11  1  0
 11 12  1  0
 11 13  1  0
  9 14  1  0
 14 15  2  0
 15  3  1  0
 14  6  1  0
M  END
>  <assay_chembl_id>  (37) 
CHEMBL863543

>  <assay_description>  (37) 
Displacement of [125I]DOI from cloned human 5HT2B receptor expressed in CHO cells

>  <parent_molecule_chembl_id>  (37) 
CHEMBL31115

>  <canonical_smiles>  (37) 
COc1ccc2[nH]cc(CC(C)N)c2c1

>  <standard_type>  (37) 
Ki

>  <standard_relation>  (37) 
=

>  <standard_value>  (37) 
7.8

>  <standard_units>  (37) 
nM

>  <target_pref_name>  (37) 
Serotonin 2b (5-HT2b) receptor

>  <target_chembl_id>  (37) 
CHEMBL1833

>  <target_organism>  (37) 
Homo sapiens

>  <pchembl_median>  (37) 
7.6

$$$$
CHEMBL478
     RDKit          2D

 13 14  0  0  0  0  0  0  0  0999 V2000
    3.0000    0.0000    0.0000 Cl  0  0  0  0  0  0  0  0  0  0  0  0
    1.5000    0.0000    0.0000 C   0  0  0  0  0  0  0  0  0  0  0  0
    0.7500   -1.2990    0.0000 C   0  0  0  0  0  0  0  0  0  0  0  0
   -0.7500   -1.2990    0.0000 C   0  0  0  0  0  0  0  0  0  0  0  0
   -1.5000    0.0000    0.0000 C   0  0  0  0  0  0  0  0  0  0  0  0
   -0.7500    1.2990    0.0000 C   0  0  0  0  0  0  0  0  0  0  0  0
   -1.5000    2.5981    0.0000 N   0  0  0  0  0  0  0  0  0  0  0  0
   -0.7500    3.8971    0.0000 C   0  0  0  0  0  0  0  0  0  0  0  0
   -1.5000    5.1962    0.0000 C   0  0  0  0  0  0  0  0  0  0  0  0
   -3.0000    5.1962    0.0000 N   0  0  0  0  0  0  0  0  0  0  0  0
   -3.7500    3.8971    0.0000 C   0  0  0  0  0  0  0  0  0  0  0  0
   -3.0000    2.5981    0.0000 C   0  0  0  0  0  0  0  0  0  0  0  0
    0.7500    1.2990    0.0000 C   0  0  0  0  0  0  0  0  0  0  0  0
  1  2  1  0
  2  3  2  0
  3  4  1  0
  4  5  2  0
  5  6  1  0
  6  7  1  0
  7  8  1  0
  8  9  1  0
  9 10  1  0
 10 11  1  0
 11 12  1  0
  6 13  2  0
 13  2  1  0
 12  7  1  0
M  END
>  <assay_chembl_id>  (38) 
CHEMBL854095

>  <assay_description>  (38) 
Displacement of [3H]5-HT from human 5HT2B

>  <parent_molecule_chembl_id>  (38) 
CHEMBL478

>  <canonical_smiles>  (38) 
Clc1cccc(N2CCNCC2)c1

>  <standard_type>  (38) 
Ki

>  <standard_relation>  (38) 
=

>  <standard_value>  (38) 
32.0

>  <standard_units>  (38) 
nM

>  <target_pref_name>  (38) 
Serotonin 2b (5-HT2b) receptor

>  <target_chembl_id>  (38) 
CHEMBL1833

>  <target_organism>  (38) 
Homo sapiens

>  <pchembl_median>  (38) 
7.6

$$$$
CHEMBL379223
     RDKit          2D

 25 28  0  0  0  0  0  0  0  0999 V2000
   -5.0175   -6.3079    0.0000 C   0  0  0  0  0  0  0  0  0  0  0  0
   -6.4441   -6.7714    0.0000 C   0  0  0  0  0  0  0  0  0  0  0  0
   -6.7560   -8.2387    0.0000 C   0  0  0  0  0  0  0  0  0  0  0  0
   -8.1826   -8.7022    0.0000 C   0  0  0  0  0  0  0  0  0  0  0  0
   -9.2973   -7.6985    0.0000 C   0  0  0  0  0  0  0  0  0  0  0  0
   -8.9854   -6.2313    0.0000 C   0  0  0  0  0  0  0  0  0  0  0  0
   -7.5588   -5.7677    0.0000 C   0  0  0  0  0  0  0  0  0  0  0  0
   -7.2470   -4.3005    0.0000 C   0  0  0  0  0  0  0  0  0  0  0  0
   -5.8204   -3.8370    0.0000 N   0  0  0  0  0  0  0  0  0  0  0  0
   -5.5085   -2.3698    0.0000 C   0  0  0  0  0  0  0  0  0  0  0  0
   -6.6232   -1.3661    0.0000 C   0  0  0  0  0  0  0  0  0  0  0  0
   -4.0819   -1.9062    0.0000 C   0  0  0  0  0  0  0  0  0  0  0  0
   -2.9672   -2.9099    0.0000 N   0  0  0  0  0  0  0  0  0  0  0  0
   -3.1240   -4.4017    0.0000 C   0  0  0  0  0  0  0  0  0  0  0  0
   -1.7537   -5.0118    0.0000 C   0  0  0  0  0  0  0  0  0  0  0  0
   -0.7500   -3.8971    0.0000 C   0  0  0  0  0  0  0  0  0  0  0  0
    0.7500   -3.8971    0.0000 C   0  0  0  0  0  0  0  0  0  0  0  0
    1.5000   -2.5981    0.0000 C   0  0  0  0  0  0  0  0  0  0  0  0
    0.7500   -1.2990    0.0000 C   0  0  0  0  0  0  0  0  0  0  0  0
    1.5000    0.0000    0.0000 N   0  0  0  0  0  0  0  0  0  0  0  0
    0.7500    1.2990    0.0000 C   0  0  0  0  0  0  0  0  0  0  0  0
   -0.7500    1.2990    0.0000 C   0  0  0  0  0  0  0  0  0  0  0  0
   -1.5000    0.0000    0.0000 C   0  0  0  0  0  0  0  0  0  0  0  0
   -0.7500   -1.2990    0.0000 C   0  0  0  0  0  0  0  0  0  0  0  0
   -1.5000   -2.5981    0.0000 C   0  0  0  0  0  0  0  0  0  0  0  0
  1  2  1  0
  2  3  2  0
  3  4  1  0
  4  5  2  0
  5  6  1  0
  6  7  2  0
  7  8  1  0
  8  9  1  0
  9 10  1  0
 10 11  1  1
 10 12  1  0
 12 13  1  0
 13 14  1  0
 14 15  2  0
 15 16  1  0
 16 17  2  0
 17 18  1  0
 18 19  2  0
 19 20  1  0
 20 21  2  0
 21 22  1  0
 22 23  2  0
 23 24  1  0
 24 25  2  0
  7  2  1  0
 25 13  1  0
 25 16  1  0
 24 19  1  0
M  END
>  <assay_chembl_id>  (39) 
CHEMBL854095

>  <assay_description>  (39) 
Displacement of [3H]5-HT from human 5HT2B

>  <parent_molecule_chembl_id>  (39) 
CHEMBL379223

>  <canonical_smiles>  (39) 
Cc1ccccc1CN[C@@H](C)Cn1ccc2ccc3ncccc3c21

>  <standard_type>  (39) 
Ki

>  <standard_relation>  (39) 
=

>  <standard_value>  (39) 
739.0

>  <standard_units>  (39) 
nM

>  <target_pref_name>  (39) 
Serotonin 2b (5-HT2b) receptor

>  <target_chembl_id>  (39) 
CHEMBL1833

>  <target_organism>  (39) 
Homo sapiens

>  <pchembl_median>  (39) 
8.0

$$$$
CHEMBL383042
     RDKit          2D

 26 29  0  0  0  0  0  0  0  0999 V2000
   -3.9028   -7.3116    0.0000 C   0  0  0  0  0  0  0  0  0  0  0  0
   -5.0175   -6.3079    0.0000 O   0  0  0  0  0  0  0  0  0  0  0  0
   -6.4441   -6.7714    0.0000 C   0  0  0  0  0  0  0  0  0  0  0  0
   -6.7560   -8.2387    0.0000 C   0  0  0  0  0  0  0  0  0  0  0  0
   -8.1826   -8.7022    0.0000 C   0  0  0  0  0  0  0  0  0  0  0  0
   -9.2973   -7.6985    0.0000 C   0  0  0  0  0  0  0  0  0  0  0  0
   -8.9854   -6.2313    0.0000 C   0  0  0  0  0  0  0  0  0  0  0  0
   -7.5588   -5.7677    0.0000 C   0  0  0  0  0  0  0  0  0  0  0  0
   -7.2470   -4.3005    0.0000 C   0  0  0  0  0  0  0  0  0  0  0  0
   -5.8204   -3.8370    0.0000 N   0  0  0  0  0  0  0  0  0  0  0  0
   -5.5085   -2.3698    0.0000 C   0  0  0  0  0  0  0  0  0  0  0  0
   -6.6232   -1.3661    0.0000 C   0  0  0  0  0  0  0  0  0  0  0  0
   -4.0819   -1.9062    0.0000 C   0  0  0  0  0  0  0  0  0  0  0  0
   -2.9672   -2.9099    0.0000 N   0  0  0  0  0  0  0  0  0  0  0  0
   -3.1240   -4.4017    0.0000 C   0  0  0  0  0  0  0  0  0  0  0  0
   -1.7537   -5.0118    0.0000 C   0  0  0  0  0  0  0  0  0  0  0  0
   -0.7500   -3.8971    0.0000 C   0  0  0  0  0  0  0  0  0  0  0  0
    0.7500   -3.8971    0.0000 C   0  0  0  0  0  0  0  0  0  0  0  0
    1.5000   -2.5981    0.0000 C   0  0  0  0  0  0  0  0  0  0  0  0
    0.7500   -1.2990    0.0000 C   0  0  0  0  0  0  0  0  0  0  0  0
    1.5000    0.0000    0.0000 N   0  0  0  0  0  0  0  0  0  0  0  0
    0.7500    1.2990    0.0000 C   0  0  0  0  0  0  0  0  0  0  0  0
   -0.7500    1.2990    0.0000 C   0  0  0  0  0  0  0  0  0  0  0  0
   -1.5000    0.0000    0.0000 C   0  0  0  0  0  0  0  0  0  0  0  0
   -0.7500   -1.2990    0.0000 C   0  0  0  0  0  0  0  0  0  0  0  0
   -1.5000   -2.5981    0.0000 C   0  0  0  0  0  0  0  0  0  0  0  0
  1  2  1  0
  2  3  1  0
  3  4  2  0
  4  5  1  0
  5  6  2  0
  6  7  1  0
  7  8  2  0
  8  9  1  0
  9 10  1  0
 10 11  1  0
 11 12  1  1
 11 13  1  0
 13 14  1  0
 14 15  1  0
 15 16  2  0
 16 17  1  0
 17 18  2  0
 18 19  1  0
 19 20  2  0
 20 21  1  0
 21 22  2  0
 22 23  1  0
 23 24  2  0
 24 25  1  0
 25 26  2  0
  8  3  1  0
 26 14  1  0
 26 17  1  0
 25 20  1  0
M  END
>  <assay_chembl_id>  (40) 
CHEMBL854095

>  <assay_description>  (40) 
Displacement of [3H]5-HT from human 5HT2B

>  <parent_molecule_chembl_id>  (40) 
CHEMBL383042

>  <canonical_smiles>  (40) 
COc1ccccc1CN[C@@H](C)Cn1ccc2ccc3ncccc3c21

>  <standard_type>  (40) 
Ki

>  <standard_relation>  (40) 
=

>  <standard_value>  (40) 
883.0

>  <standard_units>  (40) 
nM

>  <target_pref_name>  (40) 
Serotonin 2b (5-HT2b) receptor

>  <target_chembl_id>  (40) 
CHEMBL1833

>  <target_organism>  (40) 
Homo sapiens

>  <pchembl_median>  (40) 
8.2

$$$$
CHEMBL202324
     RDKit          2D

 20 22  0  0  0  0  0  0  0  0999 V2000
   -8.9854   -6.2313    0.0000 C   0  0  0  0  0  0  0  0  0  0  0  0
   -7.5588   -5.7677    0.0000 C   0  0  0  0  0  0  0  0  0  0  0  0
   -7.2470   -4.3005    0.0000 C   0  0  0  0  0  0  0  0  0  0  0  0
   -5.8204   -3.8370    0.0000 N   0  0  0  0  0  0  0  0  0  0  0  0
   -5.5085   -2.3698    0.0000 C   0  0  0  0  0  0  0  0  0  0  0  0
   -6.6232   -1.3661    0.0000 C   0  0  0  0  0  0  0  0  0  0  0  0
   -4.0819   -1.9062    0.0000 C   0  0  0  0  0  0  0  0  0  0  0  0
   -2.9672   -2.9099    0.0000 N   0  0  0  0  0  0  0  0  0  0  0  0
   -3.1240   -4.4017    0.0000 C   0  0  0  0  0  0  0  0  0  0  0  0
   -1.7537   -5.0118    0.0000 C   0  0  0  0  0  0  0  0  0  0  0  0
   -0.7500   -3.8971    0.0000 C   0  0  0  0  0  0  0  0  0  0  0  0
    0.7500   -3.8971    0.0000 C   0  0  0  0  0  0  0  0  0  0  0  0
    1.5000   -2.5981    0.0000 C   0  0  0  0  0  0  0  0  0  0  0  0
    0.7500   -1.2990    0.0000 C   0  0  0  0  0  0  0  0  0  0  0  0
    1.5000    0.0000    0.0000 N   0  0  0  0  0  0  0  0  0  0  0  0
    0.7500    1.2990    0.0000 C   0  0  0  0  0  0  0  0  0  0  0  0
   -0.7500    1.2990    0.0000 C   0  0  0  0  0  0  0  0  0  0  0  0
   -1.5000    0.0000    0.0000 C   0  0  0  0  0  0  0  0  0  0  0  0
   -0.7500   -1.2990    0.0000 C   0  0  0  0  0  0  0  0  0  0  0  0
   -1.5000   -2.5981    0.0000 C   0  0  0  0  0  0  0  0  0  0  0  0
  1  2  2  0
  2  3  1  0
  3  4  1  0
  4  5  1  0
  5  6  1  1
  5  7  1  0
  7  8  1  0
  8  9  1  0
  9 10  2  0
 10 11  1  0
 11 12  2  0
 12 13  1  0
 13 14  2  0
 14 15  1  0
 15 16  2  0
 16 17  1  0
 17 18  2  0
 18 19  1  0
 19 20  2  0
 20  8  1  0
 20 11  1  0
 19 14  1  0
M  END
>  <assay_chembl_id>  (41) 
CHEMBL854095

>  <assay_description>  (41) 
Displacement of [3H]5-HT from human 5HT2B

>  <parent_molecule_chembl_id>  (41) 
CHEMBL202324

>  <canonical_smiles>  (41) 
C=CCN[C@@H](C)Cn1ccc2ccc3ncccc3c21

>  <standard_type>  (41) 
Ki

>  <standard_relation>  (41) 
=

>  <standard_value>  (41) 
455.0

>  <standard_units>  (41) 
nM

>  <target_pref_name>  (41) 
Serotonin 2b (5-HT2b) receptor

>  <target_chembl_id>  (41) 
CHEMBL1833

>  <target_organism>  (41) 
Homo sapiens

>  <pchembl_median>  (41) 
6.7

$$$$
CHEMBL201117
     RDKit          2D

 24 27  0  0  0  0  0  0  0  0999 V2000
   -6.6232   -1.3661    0.0000 C   0  0  0  0  0  0  0  0  0  0  0  0
   -5.5085   -2.3698    0.0000 C   0  0  0  0  0  0  0  0  0  0  0  0
   -4.0819   -1.9062    0.0000 C   0  0  0  0  0  0  0  0  0  0  0  0
   -2.9672   -2.9099    0.0000 N   0  0  0  0  0  0  0  0  0  0  0  0
   -3.1240   -4.4017    0.0000 C   0  0  0  0  0  0  0  0  0  0  0  0
   -1.7537   -5.0118    0.0000 C   0  0  0  0  0  0  0  0  0  0  0  0
   -0.7500   -3.8971    0.0000 C   0  0  0  0  0  0  0  0  0  0  0  0
    0.7500   -3.8971    0.0000 C   0  0  0  0  0  0  0  0  0  0  0  0
    1.5000   -2.5981    0.0000 C   0  0  0  0  0  0  0  0  0  0  0  0
    0.7500   -1.2990    0.0000 C   0  0  0  0  0  0  0  0  0  0  0  0
    1.5000    0.0000    0.0000 N   0  0  0  0  0  0  0  0  0  0  0  0
    0.7500    1.2990    0.0000 C   0  0  0  0  0  0  0  0  0  0  0  0
   -0.7500    1.2990    0.0000 C   0  0  0  0  0  0  0  0  0  0  0  0
   -1.5000    0.0000    0.0000 C   0  0  0  0  0  0  0  0  0  0  0  0
   -0.7500   -1.2990    0.0000 C   0  0  0  0  0  0  0  0  0  0  0  0
   -1.5000   -2.5981    0.0000 C   0  0  0  0  0  0  0  0  0  0  0  0
   -5.8204   -3.8370    0.0000 N   0  0  0  0  0  0  0  0  0  0  0  0
   -7.2470   -4.3005    0.0000 C   0  0  0  0  0  0  0  0  0  0  0  0
   -7.5588   -5.7677    0.0000 C   0  0  0  0  0  0  0  0  0  0  0  0
   -8.9854   -6.2313    0.0000 C   0  0  0  0  0  0  0  0  0  0  0  0
   -9.2973   -7.6985    0.0000 C   0  0  0  0  0  0  0  0  0  0  0  0
   -8.1826   -8.7022    0.0000 C   0  0  0  0  0  0  0  0  0  0  0  0
   -6.7560   -8.2387    0.0000 C   0  0  0  0  0  0  0  0  0  0  0  0
   -6.4441   -6.7714    0.0000 C   0  0  0  0  0  0  0  0  0  0  0  0
  2  1  1  1
  2  3  1  0
  3  4  1  0
  4  5  1  0
  5  6  2  0
  6  7  1  0
  7  8  2  0
  8  9  1  0
  9 10  2  0
 10 11  1  0
 11 12  2  0
 12 13  1  0
 13 14  2  0
 14 15  1  0
 15 16  2  0
  2 17  1  0
 17 18  1  0
 18 19  1  0
 19 20  1  0
 20 21  1  0
 21 22  1  0
 22 23  1  0
 23 24  1  0
 16  4  1  0
 24 19  1  0
 16  7  1  0
 15 10  1  0
M  END
>  <assay_chembl_id>  (42) 
CHEMBL854095

>  <assay_description>  (42) 
Displacement of [3H]5-HT from human 5HT2B

>  <parent_molecule_chembl_id>  (42) 
CHEMBL201117

>  <canonical_smiles>  (42) 
C[C@@H](Cn1ccc2ccc3ncccc3c21)NCC1CCCCC1

>  <standard_type>  (42) 
Ki

>  <standard_relation>  (42) 
=

>  <standard_value>  (42) 
624.0

>  <standard_units>  (42) 
nM

>  <target_pref_name>  (42) 
Serotonin 2b (5-HT2b) receptor

>  <target_chembl_id>  (42) 
CHEMBL1833

>  <target_organism>  (42) 
Homo sapiens

>  <pchembl_median>  (42) 
6.4

$$$$
CHEMBL380763
     RDKit          2D

 24 27  0  0  0  0  0  0  0  0999 V2000
   -6.6232   -1.3661    0.0000 C   0  0  0  0  0  0  0  0  0  0  0  0
   -5.5085   -2.3698    0.0000 C   0  0  0  0  0  0  0  0  0  0  0  0
   -4.0819   -1.9062    0.0000 C   0  0  0  0  0  0  0  0  0  0  0  0
   -2.9672   -2.9099    0.0000 N   0  0  0  0  0  0  0  0  0  0  0  0
   -3.1240   -4.4017    0.0000 C   0  0  0  0  0  0  0  0  0  0  0  0
   -1.7537   -5.0118    0.0000 C   0  0  0  0  0  0  0  0  0  0  0  0
   -0.7500   -3.8971    0.0000 C   0  0  0  0  0  0  0  0  0  0  0  0
    0.7500   -3.8971    0.0000 C   0  0  0  0  0  0  0  0  0  0  0  0
    1.5000   -2.5981    0.0000 C   0  0  0  0  0  0  0  0  0  0  0  0
    0.7500   -1.2990    0.0000 C   0  0  0  0  0  0  0  0  0  0  0  0
    1.5000    0.0000    0.0000 N   0  0  0  0  0  0  0  0  0  0  0  0
    0.7500    1.2990    0.0000 C   0  0  0  0  0  0  0  0  0  0  0  0
   -0.7500    1.2990    0.0000 C   0  0  0  0  0  0  0  0  0  0  0  0
   -1.5000    0.0000    0.0000 C   0  0  0  0  0  0  0  0  0  0  0  0
   -0.7500   -1.2990    0.0000 C   0  0  0  0  0  0  0  0  0  0  0  0
   -1.5000   -2.5981    0.0000 C   0  0  0  0  0  0  0  0  0  0  0  0
   -5.8204   -3.8370    0.0000 N   0  0  0  0  0  0  0  0  0  0  0  0
   -7.2470   -4.3005    0.0000 C   0  0  0  0  0  0  0  0  0  0  0  0
   -7.5588   -5.7677    0.0000 C   0  0  0  0  0  0  0  0  0  0  0  0
   -8.9854   -6.2313    0.0000 C   0  0  0  0  0  0  0  0  0  0  0  0
   -9.2973   -7.6985    0.0000 C   0  0  0  0  0  0  0  0  0  0  0  0
   -8.1826   -8.7022    0.0000 C   0  0  0  0  0  0  0  0  0  0  0  0
   -6.7560   -8.2387    0.0000 C   0  0  0  0  0  0  0  0  0  0  0  0
   -6.4441   -6.7714    0.0000 C   0  0  0  0  0  0  0  0  0  0  0  0
  2  1  1  1
  2  3  1  0
  3  4  1  0
  4  5  1  0
  5  6  2  0
  6  7  1  0
  7  8  2  0
  8  9  1  0
  9 10  2  0
 10 11  1  0
 11 12  2  0
 12 13  1  0
 13 14  2  0
 14 15  1  0
 15 16  2  0
  2 17  1  0
 17 18  1  0
 18 19  1  0
 19 20  2  0
 20 21  1  0
 21 22  2  0
 22 23  1  0
 23 24  2  0
 16  4  1  0
 24 19  1  0
 16  7  1  0
 15 10  1  0
M  END
>  <assay_chembl_id>  (43) 
CHEMBL854095

>  <assay_description>  (43) 
Displacement of [3H]5-HT from human 5HT2B

>  <parent_molecule_chembl_id>  (43) 
CHEMBL380763

>  <canonical_smiles>  (43) 
C[C@@H](Cn1ccc2ccc3ncccc3c21)NCc1ccccc1

>  <standard_type>  (43) 
Ki

>  <standard_relation>  (43) 
=

>  <standard_value>  (43) 
515.0

>  <standard_units>  (43) 
nM

>  <target_pref_name>  (43) 
Serotonin 2b (5-HT2b) receptor

>  <target_chembl_id>  (43) 
CHEMBL1833

>  <target_organism>  (43) 
Homo sapiens

>  <pchembl_median>  (43) 
6.3

$$$$
CHEMBL202538
     RDKit          2D

 25 28  0  0  0  0  0  0  0  0999 V2000
   -6.6232   -1.3661    0.0000 C   0  0  0  0  0  0  0  0  0  0  0  0
   -5.5085   -2.3698    0.0000 C   0  0  0  0  0  0  0  0  0  0  0  0
   -4.0819   -1.9062    0.0000 C   0  0  0  0  0  0  0  0  0  0  0  0
   -2.9672   -2.9099    0.0000 N   0  0  0  0  0  0  0  0  0  0  0  0
   -3.1240   -4.4017    0.0000 C   0  0  0  0  0  0  0  0  0  0  0  0
   -1.7537   -5.0118    0.0000 C   0  0  0  0  0  0  0  0  0  0  0  0
   -0.7500   -3.8971    0.0000 C   0  0  0  0  0  0  0  0  0  0  0  0
    0.7500   -3.8971    0.0000 C   0  0  0  0  0  0  0  0  0  0  0  0
    1.5000   -2.5981    0.0000 C   0  0  0  0  0  0  0  0  0  0  0  0
    0.7500   -1.2990    0.0000 C   0  0  0  0  0  0  0  0  0  0  0  0
    1.5000    0.0000    0.0000 N   0  0  0  0  0  0  0  0  0  0  0  0
    0.7500    1.2990    0.0000 C   0  0  0  0  0  0  0  0  0  0  0  0
   -0.7500    1.2990    0.0000 C   0  0  0  0  0  0  0  0  0  0  0  0
   -1.5000    0.0000    0.0000 C   0  0  0  0  0  0  0  0  0  0  0  0
   -0.7500   -1.2990    0.0000 C   0  0  0  0  0  0  0  0  0  0  0  0
   -1.5000   -2.5981    0.0000 C   0  0  0  0  0  0  0  0  0  0  0  0
   -5.8204   -3.8370    0.0000 N   0  0  0  0  0  0  0  0  0  0  0  0
   -7.2470   -4.3005    0.0000 C   0  0  0  0  0  0  0  0  0  0  0  0
   -7.5588   -5.7677    0.0000 C   0  0  0  0  0  0  0  0  0  0  0  0
   -8.9854   -6.2313    0.0000 C   0  0  0  0  0  0  0  0  0  0  0  0
   -9.2973   -7.6985    0.0000 C   0  0  0  0  0  0  0  0  0  0  0  0
   -8.1826   -8.7022    0.0000 C   0  0  0  0  0  0  0  0  0  0  0  0
   -6.7560   -8.2387    0.0000 C   0  0  0  0  0  0  0  0  0  0  0  0
   -6.4441   -6.7714    0.0000 C   0  0  0  0  0  0  0  0  0  0  0  0
   -5.0175   -6.3079    0.0000 Cl  0  0  0  0  0  0  0  0  0  0  0  0
  2  1  1  1
  2  3  1  0
  3  4  1  0
  4  5  1  0
  5  6  2  0
  6  7  1  0
  7  8  2  0
  8  9  1  0
  9 10  2  0
 10 11  1  0
 11 12  2  0
 12 13  1  0
 13 14  2  0
 14 15  1  0
 15 16  2  0
  2 17  1  0
 17 18  1  0
 18 19  1  0
 19 20  2  0
 20 21  1  0
 21 22  2  0
 22 23  1  0
 23 24  2  0
 24 25  1  0
 16  4  1  0
 24 19  1  0
 16  7  1  0
 15 10  1  0
M  END
>  <assay_chembl_id>  (44) 
CHEMBL854095

>  <assay_description>  (44) 
Displacement of [3H]5-HT from human 5HT2B

>  <parent_molecule_chembl_id>  (44) 
CHEMBL202538

>  <canonical_smiles>  (44) 
C[C@@H](Cn1ccc2ccc3ncccc3c21)NCc1ccccc1Cl

>  <standard_type>  (44) 
Ki

>  <standard_relation>  (44) 
=

>  <standard_value>  (44) 
380.0

>  <standard_units>  (44) 
nM

>  <target_pref_name>  (44) 
Serotonin 2b (5-HT2b) receptor

>  <target_chembl_id>  (44) 
CHEMBL1833

>  <target_organism>  (44) 
Homo sapiens

>  <pchembl_median>  (44) 
5.9

$$$$
CHEMBL202458
     RDKit          2D

 27 31  0  0  0  0  0  0  0  0999 V2000
   -6.6232   -1.3661    0.0000 C   0  0  0  0  0  0  0  0  0  0  0  0
   -5.5085   -2.3698    0.0000 C   0  0  0  0  0  0  0  0  0  0  0  0
   -4.0819   -1.9062    0.0000 C   0  0  0  0  0  0  0  0  0  0  0  0
   -2.9672   -2.9099    0.0000 N   0  0  0  0  0  0  0  0  0  0  0  0
   -3.1240   -4.4017    0.0000 C   0  0  0  0  0  0  0  0  0  0  0  0
   -1.7537   -5.0118    0.0000 C   0  0  0  0  0  0  0  0  0  0  0  0
   -0.7500   -3.8971    0.0000 C   0  0  0  0  0  0  0  0  0  0  0  0
    0.7500   -3.8971    0.0000 C   0  0  0  0  0  0  0  0  0  0  0  0
    1.5000   -2.5981    0.0000 C   0  0  0  0  0  0  0  0  0  0  0  0
    0.7500   -1.2990    0.0000 C   0  0  0  0  0  0  0  0  0  0  0  0
    1.5000    0.0000    0.0000 N   0  0  0  0  0  0  0  0  0  0  0  0
    0.7500    1.2990    0.0000 C   0  0  0  0  0  0  0  0  0  0  0  0
   -0.7500    1.2990    0.0000 C   0  0  0  0  0  0  0  0  0  0  0  0
   -1.5000    0.0000    0.0000 C   0  0  0  0  0  0  0  0  0  0  0  0
   -0.7500   -1.2990    0.0000 C   0  0  0  0  0  0  0  0  0  0  0  0
   -1.5000   -2.5981    0.0000 C   0  0  0  0  0  0  0  0  0  0  0  0
   -5.8204   -3.8370    0.0000 N   0  0  0  0  0  0  0  0  0  0  0  0
   -7.2470   -4.3005    0.0000 C   0  0  0  0  0  0  0  0  0  0  0  0
   -7.5588   -5.7677    0.0000 C   0  0  0  0  0  0  0  0  0  0  0  0
   -6.4441   -6.7714    0.0000 C   0  0  0  0  0  0  0  0  0  0  0  0
   -6.7560   -8.2387    0.0000 C   0  0  0  0  0  0  0  0  0  0  0  0
   -8.1826   -8.7022    0.0000 C   0  0  0  0  0  0  0  0  0  0  0  0
   -9.2973   -7.6985    0.0000 C   0  0  0  0  0  0  0  0  0  0  0  0
   -8.9854   -6.2313    0.0000 C   0  0  0  0  0  0  0  0  0  0  0  0
  -10.5963   -8.4485    0.0000 O   0  0  0  0  0  0  0  0  0  0  0  0
  -10.2845   -9.9157    0.0000 C   0  0  0  0  0  0  0  0  0  0  0  0
   -8.7927  -10.0725    0.0000 O   0  0  0  0  0  0  0  0  0  0  0  0
  2  1  1  1
  2  3  1  0
  3  4  1  0
  4  5  1  0
  5  6  2  0
  6  7  1  0
  7  8  2  0
  8  9  1  0
  9 10  2  0
 10 11  1  0
 11 12  2  0
 12 13  1  0
 13 14  2  0
 14 15  1  0
 15 16  2  0
  2 17  1  0
 17 18  1  0
 18 19  1  0
 19 20  2  0
 20 21  1  0
 21 22  2  0
 22 23  1  0
 23 24  2  0
 23 25  1  0
 25 26  1  0
 26 27  1  0
 16  4  1  0
 24 19  1  0
 16  7  1  0
 27 22  1  0
 15 10  1  0
M  END
>  <assay_chembl_id>  (45) 
CHEMBL854095

>  <assay_description>  (45) 
Displacement of [3H]5-HT from human 5HT2B

>  <parent_molecule_chembl_id>  (45) 
CHEMBL202458

>  <canonical_smiles>  (45) 
C[C@@H](Cn1ccc2ccc3ncccc3c21)NCc1ccc2c(c1)OCO2

>  <standard_type>  (45) 
Ki

>  <standard_relation>  (45) 
=

>  <standard_value>  (45) 
138.0

>  <standard_units>  (45) 
nM

>  <target_pref_name>  (45) 
Serotonin 2b (5-HT2b) receptor

>  <target_chembl_id>  (45) 
CHEMBL1833

>  <target_organism>  (45) 
Homo sapiens

>  <pchembl_median>  (45) 
7.1

$$$$
CHEMBL202616
     RDKit          2D

 28 32  0  0  0  0  0  0  0  0999 V2000
   -6.6232   -1.3661    0.0000 C   0  0  0  0  0  0  0  0  0  0  0  0
   -5.5085   -2.3698    0.0000 C   0  0  0  0  0  0  0  0  0  0  0  0
   -4.0819   -1.9062    0.0000 C   0  0  0  0  0  0  0  0  0  0  0  0
   -2.9672   -2.9099    0.0000 N   0  0  0  0  0  0  0  0  0  0  0  0
   -3.1240   -4.4017    0.0000 C   0  0  0  0  0  0  0  0  0  0  0  0
   -1.7537   -5.0118    0.0000 C   0  0  0  0  0  0  0  0  0  0  0  0
   -0.7500   -3.8971    0.0000 C   0  0  0  0  0  0  0  0  0  0  0  0
    0.7500   -3.8971    0.0000 C   0  0  0  0  0  0  0  0  0  0  0  0
    1.5000   -2.5981    0.0000 C   0  0  0  0  0  0  0  0  0  0  0  0
    0.7500   -1.2990    0.0000 C   0  0  0  0  0  0  0  0  0  0  0  0
    1.5000    0.0000    0.0000 N   0  0  0  0  0  0  0  0  0  0  0  0
    0.7500    1.2990    0.0000 C   0  0  0  0  0  0  0  0  0  0  0  0
   -0.7500    1.2990    0.0000 C   0  0  0  0  0  0  0  0  0  0  0  0
   -1.5000    0.0000    0.0000 C   0  0  0  0  0  0  0  0  0  0  0  0
   -0.7500   -1.2990    0.0000 C   0  0  0  0  0  0  0  0  0  0  0  0
   -1.5000   -2.5981    0.0000 C   0  0  0  0  0  0  0  0  0  0  0  0
   -5.8204   -3.8370    0.0000 N   0  0  0  0  0  0  0  0  0  0  0  0
   -7.2470   -4.3005    0.0000 C   0  0  0  0  0  0  0  0  0  0  0  0
   -7.5588   -5.7677    0.0000 C   0  0  0  0  0  0  0  0  0  0  0  0
   -6.4441   -6.7714    0.0000 C   0  0  0  0  0  0  0  0  0  0  0  0
   -6.7560   -8.2387    0.0000 C   0  0  0  0  0  0  0  0  0  0  0  0
   -8.1826   -8.7022    0.0000 C   0  0  0  0  0  0  0  0  0  0  0  0
   -8.4944  -10.1694    0.0000 C   0  0  0  0  0  0  0  0  0  0  0  0
   -9.9210  -10.6329    0.0000 C   0  0  0  0  0  0  0  0  0  0  0  0
  -11.0357   -9.6292    0.0000 C   0  0  0  0  0  0  0  0  0  0  0  0
  -10.7239   -8.1620    0.0000 C   0  0  0  0  0  0  0  0  0  0  0  0
   -9.2973   -7.6985    0.0000 C   0  0  0  0  0  0  0  0  0  0  0  0
   -8.9854   -6.2313    0.0000 C   0  0  0  0  0  0  0  0  0  0  0  0
  2  1  1  1
  2  3  1  0
  3  4  1  0
  4  5  1  0
  5  6  2  0
  6  7  1  0
  7  8  2  0
  8  9  1  0
  9 10  2  0
 10 11  1  0
 11 12  2  0
 12 13  1  0
 13 14  2  0
 14 15  1  0
 15 16  2  0
  2 17  1  0
 17 18  1  0
 18 19  1  0
 19 20  2  0
 20 21  1  0
 21 22  2  0
 22 23  1  0
 23 24  2  0
 24 25  1  0
 25 26  2  0
 26 27  1  0
 27 28  2  0
 16  4  1  0
 28 19  1  0
 16  7  1  0
 27 22  1  0
 15 10  1  0
M  END
>  <assay_chembl_id>  (46) 
CHEMBL854095

>  <assay_description>  (46) 
Displacement of [3H]5-HT from human 5HT2B

>  <parent_molecule_chembl_id>  (46) 
CHEMBL202616

>  <canonical_smiles>  (46) 
C[C@@H](Cn1ccc2ccc3ncccc3c21)NCc1ccc2ccccc2c1

>  <standard_type>  (46) 
Ki

>  <standard_relation>  (46) 
=

>  <standard_value>  (46) 
136.0

>  <standard_units>  (46) 
nM

>  <target_pref_name>  (46) 
Serotonin 2b (5-HT2b) receptor

>  <target_chembl_id>  (46) 
CHEMBL1833

>  <target_organism>  (46) 
Homo sapiens

>  <pchembl_median>  (46) 
6.8

$$$$
CHEMBL202656
     RDKit          2D

 17 19  0  0  0  0  0  0  0  0999 V2000
   -6.6232   -1.3661    0.0000 C   0  0  0  0  0  0  0  0  0  0  0  0
   -5.5085   -2.3698    0.0000 C   0  0  0  0  0  0  0  0  0  0  0  0
   -5.8204   -3.8370    0.0000 N   0  0  0  0  0  0  0  0  0  0  0  0
   -4.0819   -1.9062    0.0000 C   0  0  0  0  0  0  0  0  0  0  0  0
   -2.9672   -2.9099    0.0000 N   0  0  0  0  0  0  0  0  0  0  0  0
   -3.1240   -4.4017    0.0000 C   0  0  0  0  0  0  0  0  0  0  0  0
   -1.7537   -5.0118    0.0000 C   0  0  0  0  0  0  0  0  0  0  0  0
   -0.7500   -3.8971    0.0000 C   0  0  0  0  0  0  0  0  0  0  0  0
    0.7500   -3.8971    0.0000 C   0  0  0  0  0  0  0  0  0  0  0  0
    1.5000   -2.5981    0.0000 C   0  0  0  0  0  0  0  0  0  0  0  0
    0.7500   -1.2990    0.0000 C   0  0  0  0  0  0  0  0  0  0  0  0
    1.5000    0.0000    0.0000 C   0  0  0  0  0  0  0  0  0  0  0  0
    0.7500    1.2990    0.0000 N   0  0  0  0  0  0  0  0  0  0  0  0
   -0.7500    1.2990    0.0000 C   0  0  0  0  0  0  0  0  0  0  0  0
   -1.5000    0.0000    0.0000 C   0  0  0  0  0  0  0  0  0  0  0  0
   -0.7500   -1.2990    0.0000 C   0  0  0  0  0  0  0  0  0  0  0  0
   -1.5000   -2.5981    0.0000 C   0  0  0  0  0  0  0  0  0  0  0  0
  2  1  1  1
  2  3  1  0
  2  4  1  0
  4  5  1  0
  5  6  1  0
  6  7  2  0
  7  8  1  0
  8  9  2  0
  9 10  1  0
 10 11  2  0
 11 12  1  0
 12 13  2  0
 13 14  1  0
 14 15  2  0
 15 16  1  0
 16 17  2  0
 17  5  1  0
 17  8  1  0
 16 11  1  0
M  END
>  <assay_chembl_id>  (47) 
CHEMBL854095

>  <assay_description>  (47) 
Displacement of [3H]5-HT from human 5HT2B

>  <parent_molecule_chembl_id>  (47) 
CHEMBL202656

>  <canonical_smiles>  (47) 
C[C@H](N)Cn1ccc2ccc3cnccc3c21

>  <standard_type>  (47) 
Ki

>  <standard_relation>  (47) 
=

>  <standard_value>  (47) 
778.0

>  <standard_units>  (47) 
nM

>  <target_pref_name>  (47) 
Serotonin 2b (5-HT2b) receptor

>  <target_chembl_id>  (47) 
CHEMBL1833

>  <target_organism>  (47) 
Homo sapiens

>  <pchembl_median>  (47) 
6.9

$$$$
CHEMBL201897
     RDKit          2D

 17 19  0  0  0  0  0  0  0  0999 V2000
   -6.6232   -1.3661    0.0000 C   0  0  0  0  0  0  0  0  0  0  0  0
   -5.5085   -2.3698    0.0000 C   0  0  0  0  0  0  0  0  0  0  0  0
   -5.8204   -3.8370    0.0000 N   0  0  0  0  0  0  0  0  0  0  0  0
   -4.0819   -1.9062    0.0000 C   0  0  0  0  0  0  0  0  0  0  0  0
   -2.9672   -2.9099    0.0000 N   0  0  0  0  0  0  0  0  0  0  0  0
   -3.1240   -4.4017    0.0000 C   0  0  0  0  0  0  0  0  0  0  0  0
   -1.7537   -5.0118    0.0000 C   0  0  0  0  0  0  0  0  0  0  0  0
   -0.7500   -3.8971    0.0000 C   0  0  0  0  0  0  0  0  0  0  0  0
    0.7500   -3.8971    0.0000 C   0  0  0  0  0  0  0  0  0  0  0  0
    1.5000   -2.5981    0.0000 C   0  0  0  0  0  0  0  0  0  0  0  0
    0.7500   -1.2990    0.0000 C   0  0  0  0  0  0  0  0  0  0  0  0
    1.5000    0.0000    0.0000 C   0  0  0  0  0  0  0  0  0  0  0  0
    0.7500    1.2990    0.0000 C   0  0  0  0  0  0  0  0  0  0  0  0
   -0.7500    1.2990    0.0000 N   0  0  0  0  0  0  0  0  0  0  0  0
   -1.5000    0.0000    0.0000 C   0  0  0  0  0  0  0  0  0  0  0  0
   -0.7500   -1.2990    0.0000 C   0  0  0  0  0  0  0  0  0  0  0  0
   -1.5000   -2.5981    0.0000 C   0  0  0  0  0  0  0  0  0  0  0  0
  2  1  1  1
  2  3  1  0
  2  4  1  0
  4  5  1  0
  5  6  1  0
  6  7  2  0
  7  8  1  0
  8  9  2  0
  9 10  1  0
 10 11  2  0
 11 12  1  0
 12 13  2  0
 13 14  1  0
 14 15  2  0
 15 16  1  0
 16 17  2  0
 17  5  1  0
 17  8  1  0
 16 11  1  0
M  END
>  <assay_chembl_id>  (48) 
CHEMBL854095

>  <assay_description>  (48) 
Displacement of [3H]5-HT from human 5HT2B

>  <parent_molecule_chembl_id>  (48) 
CHEMBL201897

>  <canonical_smiles>  (48) 
C[C@H](N)Cn1ccc2ccc3ccncc3c21

>  <standard_type>  (48) 
Ki

>  <standard_relation>  (48) 
=

>  <standard_value>  (48) 
210.0

>  <standard_units>  (48) 
nM

>  <target_pref_name>  (48) 
Serotonin 2b (5-HT2b) receptor

>  <target_chembl_id>  (48) 
CHEMBL1833

>  <target_organism>  (48) 
Homo sapiens

>  <pchembl_median>  (48) 
6.1

$$$$
CHEMBL201062
     RDKit          2D

 17 19  0  0  0  0  0  0  0  0999 V2000
   -6.6232   -1.3661    0.0000 C   0  0  0  0  0  0  0  0  0  0  0  0
   -5.5085   -2.3698    0.0000 C   0  0  0  0  0  0  0  0  0  0  0  0
   -5.8204   -3.8370    0.0000 N   0  0  0  0  0  0  0  0  0  0  0  0
   -4.0819   -1.9062    0.0000 C   0  0  0  0  0  0  0  0  0  0  0  0
   -2.9672   -2.9099    0.0000 N   0  0  0  0  0  0  0  0  0  0  0  0
   -3.1240   -4.4017    0.0000 C   0  0  0  0  0  0  0  0  0  0  0  0
   -1.7537   -5.0118    0.0000 C   0  0  0  0  0  0  0  0  0  0  0  0
   -0.7500   -3.8971    0.0000 C   0  0  0  0  0  0  0  0  0  0  0  0
    0.7500   -3.8971    0.0000 C   0  0  0  0  0  0  0  0  0  0  0  0
    1.5000   -2.5981    0.0000 C   0  0  0  0  0  0  0  0  0  0  0  0
    0.7500   -1.2990    0.0000 C   0  0  0  0  0  0  0  0  0  0  0  0
    1.5000    0.0000    0.0000 C   0  0  0  0  0  0  0  0  0  0  0  0
    0.7500    1.2990    0.0000 C   0  0  0  0  0  0  0  0  0  0  0  0
   -0.7500    1.2990    0.0000 C   0  0  0  0  0  0  0  0  0  0  0  0
   -1.5000    0.0000    0.0000 N   0  0  0  0  0  0  0  0  0  0  0  0
   -0.7500   -1.2990    0.0000 C   0  0  0  0  0  0  0  0  0  0  0  0
   -1.5000   -2.5981    0.0000 C   0  0  0  0  0  0  0  0  0  0  0  0
  2  1  1  1
  2  3  1  0
  2  4  1  0
  4  5  1  0
  5  6  1  0
  6  7  2  0
  7  8  1  0
  8  9  2  0
  9 10  1  0
 10 11  2  0
 11 12  1  0
 12 13  2  0
 13 14  1  0
 14 15  2  0
 15 16  1  0
 16 17  2  0
 17  5  1  0
 17  8  1  0
 16 11  1  0
M  END
>  <assay_chembl_id>  (49) 
CHEMBL854095

>  <assay_description>  (49) 
Displacement of [3H]5-HT from human 5HT2B

>  <parent_molecule_chembl_id>  (49) 
CHEMBL201062

>  <canonical_smiles>  (49) 
C[C@H](N)Cn1ccc2ccc3cccnc3c21

>  <standard_type>  (49) 
Ki

>  <standard_relation>  (49) 
=

>  <standard_value>  (49) 
115.0

>  <standard_units>  (49) 
nM

>  <target_pref_name>  (49) 
Serotonin 2b (5-HT2b) receptor

>  <target_chembl_id>  (49) 
CHEMBL1833

>  <target_organism>  (49) 
Homo sapiens

>  <pchembl_median>  (49) 
6.4

$$$$
CHEMBL201454
     RDKit          2D

 18 20  0  0  0  0  0  0  0  0999 V2000
   -6.6232   -1.3661    0.0000 C   0  0  0  0  0  0  0  0  0  0  0  0
   -5.5085   -2.3698    0.0000 C   0  0  0  0  0  0  0  0  0  0  0  0
   -5.8204   -3.8370    0.0000 N   0  0  0  0  0  0  0  0  0  0  0  0
   -4.0819   -1.9062    0.0000 C   0  0  0  0  0  0  0  0  0  0  0  0
   -2.9672   -2.9099    0.0000 N   0  0  0  0  0  0  0  0  0  0  0  0
   -3.1240   -4.4017    0.0000 C   0  0  0  0  0  0  0  0  0  0  0  0
   -1.7537   -5.0118    0.0000 C   0  0  0  0  0  0  0  0  0  0  0  0
   -0.7500   -3.8971    0.0000 C   0  0  0  0  0  0  0  0  0  0  0  0
    0.7500   -3.8971    0.0000 C   0  0  0  0  0  0  0  0  0  0  0  0
    1.5000   -2.5981    0.0000 C   0  0  0  0  0  0  0  0  0  0  0  0
    3.0000   -2.5981    0.0000 Cl  0  0  0  0  0  0  0  0  0  0  0  0
    0.7500   -1.2990    0.0000 C   0  0  0  0  0  0  0  0  0  0  0  0
    1.5000    0.0000    0.0000 N   0  0  0  0  0  0  0  0  0  0  0  0
    0.7500    1.2990    0.0000 C   0  0  0  0  0  0  0  0  0  0  0  0
   -0.7500    1.2990    0.0000 C   0  0  0  0  0  0  0  0  0  0  0  0
   -1.5000    0.0000    0.0000 C   0  0  0  0  0  0  0  0  0  0  0  0
   -0.7500   -1.2990    0.0000 C   0  0  0  0  0  0  0  0  0  0  0  0
   -1.5000   -2.5981    0.0000 C   0  0  0  0  0  0  0  0  0  0  0  0
  2  1  1  1
  2  3  1  0
  2  4  1  0
  4  5  1  0
  5  6  1  0
  6  7  2  0
  7  8  1  0
  8  9  2  0
  9 10  1  0
 10 11  1  0
 10 12  2  0
 12 13  1  0
 13 14  2  0
 14 15  1  0
 15 16  2  0
 16 17  1  0
 17 18  2  0
 18  5  1  0
 18  8  1  0
 17 12  1  0
M  END
>  <assay_chembl_id>  (50) 
CHEMBL854095

>  <assay_description>  (50) 
Displacement of [3H]5-HT from human 5HT2B

>  <parent_molecule_chembl_id>  (50) 
CHEMBL201454

>  <canonical_smiles>  (50) 
C[C@H](N)Cn1ccc2cc(Cl)c3ncccc3c21

>  <standard_type>  (50) 
Ki

>  <standard_relation>  (50) 
=

>  <standard_value>  (50) 
18.0

>  <standard_units>  (50) 
nM

>  <target_pref_name>  (50) 
Serotonin 2b (5-HT2b) receptor

>  <target_chembl_id>  (50) 
CHEMBL1833

>  <target_organism>  (50) 
Homo sapiens

>  <pchembl_median>  (50) 
5.16

$$$$
CHEMBL201930
     RDKit          2D

 17 19  0  0  0  0  0  0  0  0999 V2000
   -6.6232   -1.3661    0.0000 C   0  0  0  0  0  0  0  0  0  0  0  0
   -5.5085   -2.3698    0.0000 C   0  0  0  0  0  0  0  0  0  0  0  0
   -5.8204   -3.8370    0.0000 N   0  0  0  0  0  0  0  0  0  0  0  0
   -4.0819   -1.9062    0.0000 C   0  0  0  0  0  0  0  0  0  0  0  0
   -2.9672   -2.9099    0.0000 N   0  0  0  0  0  0  0  0  0  0  0  0
   -3.1240   -4.4017    0.0000 C   0  0  0  0  0  0  0  0  0  0  0  0
   -1.7537   -5.0118    0.0000 C   0  0  0  0  0  0  0  0  0  0  0  0
   -0.7500   -3.8971    0.0000 C   0  0  0  0  0  0  0  0  0  0  0  0
    0.7500   -3.8971    0.0000 C   0  0  0  0  0  0  0  0  0  0  0  0
    1.5000   -2.5981    0.0000 C   0  0  0  0  0  0  0  0  0  0  0  0
    0.7500   -1.2990    0.0000 C   0  0  0  0  0  0  0  0  0  0  0  0
    1.5000    0.0000    0.0000 N   0  0  0  0  0  0  0  0  0  0  0  0
    0.7500    1.2990    0.0000 C   0  0  0  0  0  0  0  0  0  0  0  0
   -0.7500    1.2990    0.0000 C   0  0  0  0  0  0  0  0  0  0  0  0
   -1.5000    0.0000    0.0000 C   0  0  0  0  0  0  0  0  0  0  0  0
   -0.7500   -1.2990    0.0000 C   0  0  0  0  0  0  0  0  0  0  0  0
   -1.5000   -2.5981    0.0000 C   0  0  0  0  0  0  0  0  0  0  0  0
  2  1  1  1
  2  3  1  0
  2  4  1  0
  4  5  1  0
  5  6  1  0
  6  7  2  0
  7  8  1  0
  8  9  2  0
  9 10  1  0
 10 11  2  0
 11 12  1  0
 12 13  2  0
 13 14  1  0
 14 15  2  0
 15 16  1  0
 16 17  2  0
 17  5  1  0
 17  8  1  0
 16 11  1  0
M  END
>  <assay_chembl_id>  (51) 
CHEMBL854095

>  <assay_description>  (51) 
Displacement of [3H]5-HT from human 5HT2B

>  <parent_molecule_chembl_id>  (51) 
CHEMBL201930

>  <canonical_smiles>  (51) 
C[C@H](N)Cn1ccc2ccc3ncccc3c21

>  <standard_type>  (51) 
Ki

>  <standard_relation>  (51) 
=

>  <standard_value>  (51) 
12.0

>  <standard_units>  (51) 
nM

>  <target_pref_name>  (51) 
Serotonin 2b (5-HT2b) receptor

>  <target_chembl_id>  (51) 
CHEMBL1833

>  <target_organism>  (51) 
Homo sapiens

>  <pchembl_median>  (51) 
5.22

$$$$
CHEMBL76781
     RDKit          2D

 15 16  0  0  0  0  0  0  0  0999 V2000
    5.0260    1.2990    0.0000 C   0  0  0  0  0  0  0  0  0  0  0  0
    3.5260    1.2990    0.0000 C   0  0  0  0  0  0  0  0  0  0  0  0
    2.7760    2.5981    0.0000 N   0  0  0  0  0  0  0  0  0  0  0  0
    2.7760    0.0000    0.0000 C   0  0  0  0  0  0  0  0  0  0  0  0
    1.2760    0.0000    0.0000 N   0  0  0  0  0  0  0  0  0  0  0  0
    0.3943    1.2135    0.0000 C   0  0  0  0  0  0  0  0  0  0  0  0
   -1.0323    0.7500    0.0000 C   0  0  0  0  0  0  0  0  0  0  0  0
   -1.0323   -0.7500    0.0000 C   0  0  0  0  0  0  0  0  0  0  0  0
   -2.1470   -1.7537    0.0000 C   0  0  0  0  0  0  0  0  0  0  0  0
   -1.8351   -3.2209    0.0000 C   0  0  0  0  0  0  0  0  0  0  0  0
   -2.9499   -4.2246    0.0000 F   0  0  0  0  0  0  0  0  0  0  0  0
   -0.4086   -3.6844    0.0000 C   0  0  0  0  0  0  0  0  0  0  0  0
   -0.0967   -5.1517    0.0000 Cl  0  0  0  0  0  0  0  0  0  0  0  0
    0.7062   -2.6807    0.0000 C   0  0  0  0  0  0  0  0  0  0  0  0
    0.3943   -1.2135    0.0000 C   0  0  0  0  0  0  0  0  0  0  0  0
  2  1  1  1
  2  3  1  0
  2  4  1  0
  4  5  1  0
  5  6  1  0
  6  7  2  0
  7  8  1  0
  8  9  2  0
  9 10  1  0
 10 11  1  0
 10 12  2  0
 12 13  1  0
 12 14  1  0
 14 15  2  0
 15  5  1  0
 15  8  1  0
M  END
>  <assay_chembl_id>  (52) 
CHEMBL854095

>  <assay_description>  (52) 
Displacement of [3H]5-HT from human 5HT2B

>  <parent_molecule_chembl_id>  (52) 
CHEMBL76781

>  <canonical_smiles>  (52) 
C[C@H](N)Cn1ccc2cc(F)c(Cl)cc21

>  <standard_type>  (52) 
Ki

>  <standard_relation>  (52) 
=

>  <standard_value>  (52) 
5.1

>  <standard_units>  (52) 
nM

>  <target_pref_name>  (52) 
Serotonin 2b (5-HT2b) receptor

>  <target_chembl_id>  (52) 
CHEMBL1833

>  <target_organism>  (52) 
Homo sapiens

>  <pchembl_median>  (52) 
6.37

$$$$
CHEMBL39
     RDKit          2D

 13 14  0  0  0  0  0  0  0  0999 V2000
   -4.3786   -5.1199    0.0000 N   0  0  0  0  0  0  0  0  0  0  0  0
   -2.9520   -4.6564    0.0000 C   0  0  0  0  0  0  0  0  0  0  0  0
   -2.6401   -3.1891    0.0000 C   0  0  0  0  0  0  0  0  0  0  0  0
   -1.2135   -2.7256    0.0000 C   0  0  0  0  0  0  0  0  0  0  0  0
   -0.0000   -3.6073    0.0000 C   0  0  0  0  0  0  0  0  0  0  0  0
    1.2135   -2.7256    0.0000 N   0  0  0  0  0  0  0  0  0  0  0  0
    0.7500   -1.2990    0.0000 C   0  0  0  0  0  0  0  0  0  0  0  0
    1.5000    0.0000    0.0000 C   0  0  0  0  0  0  0  0  0  0  0  0
    0.7500    1.2990    0.0000 C   0  0  0  0  0  0  0  0  0  0  0  0
   -0.7500    1.2990    0.0000 C   0  0  0  0  0  0  0  0  0  0  0  0
   -1.5000    2.5981    0.0000 O   0  0  0  0  0  0  0  0  0  0  0  0
   -1.5000    0.0000    0.0000 C   0  0  0  0  0  0  0  0  0  0  0  0
   -0.7500   -1.2990    0.0000 C   0  0  0  0  0  0  0  0  0  0  0  0
  1  2  1  0
  2  3  1  0
  3  4  1  0
  4  5  2  0
  5  6  1  0
  6  7  1  0
  7  8  2  0
  8  9  1  0
  9 10  2  0
 10 11  1  0
 10 12  1  0
 12 13  2  0
 13  4  1  0
 13  7  1  0
M  END
>  <assay_chembl_id>  (53) 
CHEMBL854095

>  <assay_description>  (53) 
Displacement of [3H]5-HT from human 5HT2B

>  <parent_molecule_chembl_id>  (53) 
CHEMBL39

>  <canonical_smiles>  (53) 
NCCc1c[nH]c2ccc(O)cc12

>  <standard_type>  (53) 
Ki

>  <standard_relation>  (53) 
=

>  <standard_value>  (53) 
12.0

>  <standard_units>  (53) 
nM

>  <target_pref_name>  (53) 
Serotonin 2b (5-HT2b) receptor

>  <target_chembl_id>  (53) 
CHEMBL1833

>  <target_organism>  (53) 
Homo sapiens

>  <pchembl_median>  (53) 
6.43

$$$$
CHEMBL203025
     RDKit          2D

 14 16  0  0  0  0  0  0  0  0999 V2000
    4.1110   -5.4376    0.0000 Cl  0  0  0  0  0  0  0  0  0  0  0  0
    2.7406   -4.8275    0.0000 C   0  0  0  0  0  0  0  0  0  0  0  0
    1.5271   -5.7092    0.0000 C   0  0  0  0  0  0  0  0  0  0  0  0
    0.1568   -5.0991    0.0000 C   0  0  0  0  0  0  0  0  0  0  0  0
    0.0000   -3.6073    0.0000 C   0  0  0  0  0  0  0  0  0  0  0  0
    1.2135   -2.7256    0.0000 C   0  0  0  0  0  0  0  0  0  0  0  0
    2.5838   -3.3357    0.0000 N   0  0  0  0  0  0  0  0  0  0  0  0
    0.7500   -1.2990    0.0000 N   0  0  0  0  0  0  0  0  0  0  0  0
    1.5000    0.0000    0.0000 C   0  0  0  0  0  0  0  0  0  0  0  0
    0.7500    1.2990    0.0000 C   0  0  0  0  0  0  0  0  0  0  0  0
   -0.7500    1.2990    0.0000 N   0  0  0  0  0  0  0  0  0  0  0  0
   -1.5000    0.0000    0.0000 C   0  0  0  0  0  0  0  0  0  0  0  0
   -0.7500   -1.2990    0.0000 C   0  0  0  0  0  0  0  0  0  0  0  0
   -1.2135   -2.7256    0.0000 C   0  0  0  0  0  0  0  0  0  0  0  0
  1  2  1  0
  2  3  2  0
  3  4  1  0
  4  5  2  0
  5  6  1  0
  6  7  2  0
  6  8  1  0
  8  9  1  0
  9 10  1  0
 10 11  1  0
 11 12  1  0
 12 13  1  0
 13 14  1  0
  7  2  1  0
 13  8  1  0
 14  5  1  0
M  END
>  <assay_chembl_id>  (54) 
CHEMBL861243

>  <assay_description>  (54) 
Displacement of [3H]5HT from human recombinant 5HT2B receptor expressed in CHO cells

>  <parent_molecule_chembl_id>  (54) 
CHEMBL203025

>  <canonical_smiles>  (54) 
Clc1ccc2c(n1)N1CCNCC1C2

>  <standard_type>  (54) 
Ki

>  <standard_relation>  (54) 
=

>  <standard_value>  (54) 
221.0

>  <standard_units>  (54) 
nM

>  <target_pref_name>  (54) 
Serotonin 2b (5-HT2b) receptor

>  <target_chembl_id>  (54) 
CHEMBL1833

>  <target_organism>  (54) 
Homo sapiens

>  <pchembl_median>  (54) 
5.86

$$$$
CHEMBL190699
     RDKit          2D

 16 18  0  0  0  0  0  0  0  0999 V2000
    3.7974   -2.4540    0.0000 C   0  0  0  0  0  0  0  0  0  0  0  0
    2.5838   -3.3357    0.0000 C   0  0  0  0  0  0  0  0  0  0  0  0
    2.7406   -4.8275    0.0000 C   0  0  0  0  0  0  0  0  0  0  0  0
    4.1110   -5.4376    0.0000 Cl  0  0  0  0  0  0  0  0  0  0  0  0
    1.5271   -5.7092    0.0000 C   0  0  0  0  0  0  0  0  0  0  0  0
    0.1568   -5.0991    0.0000 C   0  0  0  0  0  0  0  0  0  0  0  0
    0.0000   -3.6073    0.0000 C   0  0  0  0  0  0  0  0  0  0  0  0
    1.2135   -2.7256    0.0000 C   0  0  0  0  0  0  0  0  0  0  0  0
    0.7500   -1.2990    0.0000 N   0  0  0  0  0  0  0  0  0  0  0  0
    1.5000    0.0000    0.0000 C   0  0  0  0  0  0  0  0  0  0  0  0
    3.0000    0.0000    0.0000 C   0  0  0  0  0  0  0  0  0  0  0  0
    0.7500    1.2990    0.0000 C   0  0  0  0  0  0  0  0  0  0  0  0
   -0.7500    1.2990    0.0000 N   0  0  0  0  0  0  0  0  0  0  0  0
   -1.5000    0.0000    0.0000 C   0  0  0  0  0  0  0  0  0  0  0  0
   -0.7500   -1.2990    0.0000 C   0  0  0  0  0  0  0  0  0  0  0  0
   -1.2135   -2.7256    0.0000 C   0  0  0  0  0  0  0  0  0  0  0  0
  1  2  1  0
  2  3  2  0
  3  4  1  0
  3  5  1  0
  5  6  2  0
  6  7  1  0
  7  8  2  0
  8  9  1  0
  9 10  1  0
 10 11  1  1
 10 12  1  0
 12 13  1  0
 13 14  1  0
 15 14  1  6
 15 16  1  0
  8  2  1  0
 15  9  1  0
 16  7  1  0
M  END
>  <assay_chembl_id>  (55) 
CHEMBL861243

>  <assay_description>  (55) 
Displacement of [3H]5HT from human recombinant 5HT2B receptor expressed in CHO cells

>  <parent_molecule_chembl_id>  (55) 
CHEMBL190699

>  <canonical_smiles>  (55) 
Cc1c(Cl)ccc2c1N1[C@H](C)CNC[C@H]1C2

>  <standard_type>  (55) 
Ki

>  <standard_relation>  (55) 
=

>  <standard_value>  (55) 
3.2

>  <standard_units>  (55) 
nM

>  <target_pref_name>  (55) 
Serotonin 2b (5-HT2b) receptor

>  <target_chembl_id>  (55) 
CHEMBL1833

>  <target_organism>  (55) 
Homo sapiens

>  <pchembl_median>  (55) 
5.995

$$$$
CHEMBL383694
     RDKit          2D

 15 17  0  0  0  0  0  0  0  0999 V2000
    3.0000    0.0000    0.0000 C   0  0  0  0  0  0  0  0  0  0  0  0
    1.5000    0.0000    0.0000 C   0  0  0  0  0  0  0  0  0  0  0  0
    0.7500   -1.2990    0.0000 C   0  0  0  0  0  0  0  0  0  0  0  0
   -0.7500   -1.2990    0.0000 N   0  0  0  0  0  0  0  0  0  0  0  0
   -1.5000    0.0000    0.0000 C   0  0  0  0  0  0  0  0  0  0  0  0
   -0.7500    1.2990    0.0000 C   0  0  0  0  0  0  0  0  0  0  0  0
   -1.2135    2.7256    0.0000 C   0  0  0  0  0  0  0  0  0  0  0  0
   -0.0000    3.6073    0.0000 C   0  0  0  0  0  0  0  0  0  0  0  0
    0.1568    5.0991    0.0000 C   0  0  0  0  0  0  0  0  0  0  0  0
    1.5271    5.7092    0.0000 C   0  0  0  0  0  0  0  0  0  0  0  0
    2.7406    4.8275    0.0000 C   0  0  0  0  0  0  0  0  0  0  0  0
    4.1110    5.4376    0.0000 Br  0  0  0  0  0  0  0  0  0  0  0  0
    2.5838    3.3357    0.0000 N   0  0  0  0  0  0  0  0  0  0  0  0
    1.2135    2.7256    0.0000 C   0  0  0  0  0  0  0  0  0  0  0  0
    0.7500    1.2990    0.0000 N   0  0  0  0  0  0  0  0  0  0  0  0
  2  1  1  6
  2  3  1  0
  3  4  1  0
  4  5  1  0
  6  5  1  6
  6  7  1  0
  7  8  1  0
  8  9  2  0
  9 10  1  0
 10 11  2  0
 11 12  1  0
 11 13  1  0
 13 14  2  0
 14 15  1  0
 15  2  1  0
 15  6  1  0
 14  8  1  0
M  END
>  <assay_chembl_id>  (56) 
CHEMBL861243

>  <assay_description>  (56) 
Displacement of [3H]5HT from human recombinant 5HT2B receptor expressed in CHO cells

>  <parent_molecule_chembl_id>  (56) 
CHEMBL383694

>  <canonical_smiles>  (56) 
C[C@@H]1CNC[C@@H]2Cc3ccc(Br)nc3N21

>  <standard_type>  (56) 
Ki

>  <standard_relation>  (56) 
=

>  <standard_value>  (56) 
166.0

>  <standard_units>  (56) 
nM

>  <target_pref_name>  (56) 
Serotonin 2b (5-HT2b) receptor

>  <target_chembl_id>  (56) 
CHEMBL1833

>  <target_organism>  (56) 
Homo sapiens

>  <pchembl_median>  (56) 
5.895

$$$$
CHEMBL203393
     RDKit          2D

 15 17  0  0  0  0  0  0  0  0999 V2000
    3.0000    0.0000    0.0000 C   0  0  0  0  0  0  0  0  0  0  0  0
    1.5000    0.0000    0.0000 C   0  0  0  0  0  0  0  0  0  0  0  0
    0.7500   -1.2990    0.0000 C   0  0  0  0  0  0  0  0  0  0  0  0
   -0.7500   -1.2990    0.0000 N   0  0  0  0  0  0  0  0  0  0  0  0
   -1.5000    0.0000    0.0000 C   0  0  0  0  0  0  0  0  0  0  0  0
   -0.7500    1.2990    0.0000 C   0  0  0  0  0  0  0  0  0  0  0  0
   -1.2135    2.7256    0.0000 C   0  0  0  0  0  0  0  0  0  0  0  0
   -0.0000    3.6073    0.0000 C   0  0  0  0  0  0  0  0  0  0  0  0
    0.1568    5.0991    0.0000 C   0  0  0  0  0  0  0  0  0  0  0  0
    1.5271    5.7092    0.0000 C   0  0  0  0  0  0  0  0  0  0  0  0
    2.7406    4.8275    0.0000 C   0  0  0  0  0  0  0  0  0  0  0  0
    4.1110    5.4376    0.0000 Br  0  0  0  0  0  0  0  0  0  0  0  0
    2.5838    3.3357    0.0000 N   0  0  0  0  0  0  0  0  0  0  0  0
    1.2135    2.7256    0.0000 C   0  0  0  0  0  0  0  0  0  0  0  0
    0.7500    1.2990    0.0000 N   0  0  0  0  0  0  0  0  0  0  0  0
  2  1  1  6
  2  3  1  0
  3  4  1  0
  4  5  1  0
  6  5  1  1
  6  7  1  0
  7  8  1  0
  8  9  2  0
  9 10  1  0
 10 11  2  0
 11 12  1  0
 11 13  1  0
 13 14  2  0
 14 15  1  0
 15  2  1  0
 15  6  1  0
 14  8  1  0
M  END
>  <assay_chembl_id>  (57) 
CHEMBL861243

>  <assay_description>  (57) 
Displacement of [3H]5HT from human recombinant 5HT2B receptor expressed in CHO cells

>  <parent_molecule_chembl_id>  (57) 
CHEMBL203393

>  <canonical_smiles>  (57) 
C[C@@H]1CNC[C@H]2Cc3ccc(Br)nc3N12

>  <standard_type>  (57) 
Ki

>  <standard_relation>  (57) 
=

>  <standard_value>  (57) 
81.0

>  <standard_units>  (57) 
nM

>  <target_pref_name>  (57) 
Serotonin 2b (5-HT2b) receptor

>  <target_chembl_id>  (57) 
CHEMBL1833

>  <target_organism>  (57) 
Homo sapiens

>  <pchembl_median>  (57) 
5.37

$$$$
CHEMBL203396
     RDKit          2D

 15 17  0  0  0  0  0  0  0  0999 V2000
    3.0000    0.0000    0.0000 C   0  0  0  0  0  0  0  0  0  0  0  0
    1.5000    0.0000    0.0000 C   0  0  0  0  0  0  0  0  0  0  0  0
    0.7500   -1.2990    0.0000 C   0  0  0  0  0  0  0  0  0  0  0  0
   -0.7500   -1.2990    0.0000 N   0  0  0  0  0  0  0  0  0  0  0  0
   -1.5000    0.0000    0.0000 C   0  0  0  0  0  0  0  0  0  0  0  0
   -0.7500    1.2990    0.0000 C   0  0  0  0  0  0  0  0  0  0  0  0
   -1.2135    2.7256    0.0000 C   0  0  0  0  0  0  0  0  0  0  0  0
   -0.0000    3.6073    0.0000 C   0  0  0  0  0  0  0  0  0  0  0  0
    0.1568    5.0991    0.0000 C   0  0  0  0  0  0  0  0  0  0  0  0
    1.5271    5.7092    0.0000 C   0  0  0  0  0  0  0  0  0  0  0  0
    2.7406    4.8275    0.0000 C   0  0  0  0  0  0  0  0  0  0  0  0
    4.1110    5.4376    0.0000 Cl  0  0  0  0  0  0  0  0  0  0  0  0
    2.5838    3.3357    0.0000 N   0  0  0  0  0  0  0  0  0  0  0  0
    1.2135    2.7256    0.0000 C   0  0  0  0  0  0  0  0  0  0  0  0
    0.7500    1.2990    0.0000 N   0  0  0  0  0  0  0  0  0  0  0  0
  2  1  1  6
  2  3  1  0
  3  4  1  0
  4  5  1  0
  6  5  1  6
  6  7  1  0
  7  8  1  0
  8  9  2  0
  9 10  1  0
 10 11  2  0
 11 12  1  0
 11 13  1  0
 13 14  2  0
 14 15  1  0
 15  2  1  0
 15  6  1  0
 14  8  1  0
M  END
>  <assay_chembl_id>  (58) 
CHEMBL861243

>  <assay_description>  (58) 
Displacement of [3H]5HT from human recombinant 5HT2B receptor expressed in CHO cells

>  <parent_molecule_chembl_id>  (58) 
CHEMBL203396

>  <canonical_smiles>  (58) 
C[C@@H]1CNC[C@@H]2Cc3ccc(Cl)nc3N21

>  <standard_type>  (58) 
Ki

>  <standard_relation>  (58) 
=

>  <standard_value>  (58) 
217.0

>  <standard_units>  (58) 
nM

>  <target_pref_name>  (58) 
Serotonin 2b (5-HT2b) receptor

>  <target_chembl_id>  (58) 
CHEMBL1833

>  <target_organism>  (58) 
Homo sapiens

>  <pchembl_median>  (58) 
5.37

$$$$
CHEMBL203230
     RDKit          2D

 15 17  0  0  0  0  0  0  0  0999 V2000
    3.0000    0.0000    0.0000 C   0  0  0  0  0  0  0  0  0  0  0  0
    1.5000    0.0000    0.0000 C   0  0  0  0  0  0  0  0  0  0  0  0
    0.7500   -1.2990    0.0000 C   0  0  0  0  0  0  0  0  0  0  0  0
   -0.7500   -1.2990    0.0000 N   0  0  0  0  0  0  0  0  0  0  0  0
   -1.5000    0.0000    0.0000 C   0  0  0  0  0  0  0  0  0  0  0  0
   -0.7500    1.2990    0.0000 C   0  0  0  0  0  0  0  0  0  0  0  0
   -1.2135    2.7256    0.0000 C   0  0  0  0  0  0  0  0  0  0  0  0
   -0.0000    3.6073    0.0000 C   0  0  0  0  0  0  0  0  0  0  0  0
    0.1568    5.0991    0.0000 C   0  0  0  0  0  0  0  0  0  0  0  0
    1.5271    5.7092    0.0000 C   0  0  0  0  0  0  0  0  0  0  0  0
    2.7406    4.8275    0.0000 C   0  0  0  0  0  0  0  0  0  0  0  0
    4.1110    5.4376    0.0000 Cl  0  0  0  0  0  0  0  0  0  0  0  0
    2.5838    3.3357    0.0000 N   0  0  0  0  0  0  0  0  0  0  0  0
    1.2135    2.7256    0.0000 C   0  0  0  0  0  0  0  0  0  0  0  0
    0.7500    1.2990    0.0000 N   0  0  0  0  0  0  0  0  0  0  0  0
  2  1  1  6
  2  3  1  0
  3  4  1  0
  4  5  1  0
  6  5  1  1
  6  7  1  0
  7  8  1  0
  8  9  2  0
  9 10  1  0
 10 11  2  0
 11 12  1  0
 11 13  1  0
 13 14  2  0
 14 15  1  0
 15  2  1  0
 15  6  1  0
 14  8  1  0
M  END
>  <assay_chembl_id>  (59) 
CHEMBL861243

>  <assay_description>  (59) 
Displacement of [3H]5HT from human recombinant 5HT2B receptor expressed in CHO cells

>  <parent_molecule_chembl_id>  (59) 
CHEMBL203230

>  <canonical_smiles>  (59) 
C[C@@H]1CNC[C@H]2Cc3ccc(Cl)nc3N12

>  <standard_type>  (59) 
Ki

>  <standard_relation>  (59) 
=

>  <standard_value>  (59) 
48.0

>  <standard_units>  (59) 
nM

>  <target_pref_name>  (59) 
Serotonin 2b (5-HT2b) receptor

>  <target_chembl_id>  (59) 
CHEMBL1833

>  <target_organism>  (59) 
Homo sapiens

>  <pchembl_median>  (59) 
6.295

$$$$
CHEMBL206618
     RDKit          2D

 19 21  0  0  0  0  0  0  0  0999 V2000
    6.0000    2.5981    0.0000 C   0  0  0  0  0  0  0  0  0  0  0  0
    5.2500    1.2990    0.0000 C   0  0  0  0  0  0  0  0  0  0  0  0
    3.7500    1.2990    0.0000 O   0  0  0  0  0  0  0  0  0  0  0  0
    3.0000    0.0000    0.0000 C   0  0  0  0  0  0  0  0  0  0  0  0
    3.7500   -1.2990    0.0000 C   0  0  0  0  0  0  0  0  0  0  0  0
    1.5000    0.0000    0.0000 C   0  0  0  0  0  0  0  0  0  0  0  0
    0.7500   -1.2990    0.0000 C   0  0  0  0  0  0  0  0  0  0  0  0
   -0.7500   -1.2990    0.0000 C   0  0  0  0  0  0  0  0  0  0  0  0
   -1.5000    0.0000    0.0000 C   0  0  0  0  0  0  0  0  0  0  0  0
   -0.7500    1.2990    0.0000 C   0  0  0  0  0  0  0  0  0  0  0  0
    0.7500    1.2990    0.0000 N   0  0  0  0  0  0  0  0  0  0  0  0
   -1.7537    2.4138    0.0000 N   0  0  0  0  0  0  0  0  0  0  0  0
   -1.5969    3.9055    0.0000 C   0  0  0  0  0  0  0  0  0  0  0  0
   -0.2266    4.5156    0.0000 C   0  0  0  0  0  0  0  0  0  0  0  0
   -2.8104    4.7872    0.0000 C   0  0  0  0  0  0  0  0  0  0  0  0
   -4.1807    4.1771    0.0000 N   0  0  0  0  0  0  0  0  0  0  0  0
   -4.3375    2.6853    0.0000 C   0  0  0  0  0  0  0  0  0  0  0  0
   -3.1240    1.8037    0.0000 C   0  0  0  0  0  0  0  0  0  0  0  0
   -2.9672    0.3119    0.0000 C   0  0  0  0  0  0  0  0  0  0  0  0
  1  2  1  0
  2  3  1  0
  3  4  1  0
  4  5  1  6
  4  6  1  0
  6  7  2  0
  7  8  1  0
  8  9  2  0
  9 10  1  0
 10 11  2  0
 10 12  1  0
 12 13  1  0
 13 14  1  1
 13 15  1  0
 15 16  1  0
 16 17  1  0
 18 17  1  6
 18 19  1  0
 11  6  1  0
 18 12  1  0
 19  9  1  0
M  END
>  <assay_chembl_id>  (60) 
CHEMBL861243

>  <assay_description>  (60) 
Displacement of [3H]5HT from human recombinant 5HT2B receptor expressed in CHO cells

>  <parent_molecule_chembl_id>  (60) 
CHEMBL206618

>  <canonical_smiles>  (60) 
CCO[C@H](C)c1ccc2c(n1)N1[C@H](C)CNC[C@H]1C2

>  <standard_type>  (60) 
Ki

>  <standard_relation>  (60) 
=

>  <standard_value>  (60) 
1306.0

>  <standard_units>  (60) 
nM

>  <target_pref_name>  (60) 
Serotonin 2b (5-HT2b) receptor

>  <target_chembl_id>  (60) 
CHEMBL1833

>  <target_organism>  (60) 
Homo sapiens

>  <pchembl_median>  (60) 
5.81

$$$$
CHEMBL206394
     RDKit          2D

 19 21  0  0  0  0  0  0  0  0999 V2000
    6.0000    2.5981    0.0000 C   0  0  0  0  0  0  0  0  0  0  0  0
    5.2500    1.2990    0.0000 C   0  0  0  0  0  0  0  0  0  0  0  0
    3.7500    1.2990    0.0000 O   0  0  0  0  0  0  0  0  0  0  0  0
    3.0000    0.0000    0.0000 C   0  0  0  0  0  0  0  0  0  0  0  0
    3.7500   -1.2990    0.0000 C   0  0  0  0  0  0  0  0  0  0  0  0
    1.5000    0.0000    0.0000 C   0  0  0  0  0  0  0  0  0  0  0  0
    0.7500   -1.2990    0.0000 C   0  0  0  0  0  0  0  0  0  0  0  0
   -0.7500   -1.2990    0.0000 C   0  0  0  0  0  0  0  0  0  0  0  0
   -1.5000    0.0000    0.0000 C   0  0  0  0  0  0  0  0  0  0  0  0
   -0.7500    1.2990    0.0000 C   0  0  0  0  0  0  0  0  0  0  0  0
    0.7500    1.2990    0.0000 N   0  0  0  0  0  0  0  0  0  0  0  0
   -1.7537    2.4138    0.0000 N   0  0  0  0  0  0  0  0  0  0  0  0
   -1.5969    3.9055    0.0000 C   0  0  0  0  0  0  0  0  0  0  0  0
   -0.2266    4.5156    0.0000 C   0  0  0  0  0  0  0  0  0  0  0  0
   -2.8104    4.7872    0.0000 C   0  0  0  0  0  0  0  0  0  0  0  0
   -4.1807    4.1771    0.0000 N   0  0  0  0  0  0  0  0  0  0  0  0
   -4.3375    2.6853    0.0000 C   0  0  0  0  0  0  0  0  0  0  0  0
   -3.1240    1.8037    0.0000 C   0  0  0  0  0  0  0  0  0  0  0  0
   -2.9672    0.3119    0.0000 C   0  0  0  0  0  0  0  0  0  0  0  0
  1  2  1  0
  2  3  1  0
  3  4  1  0
  4  5  1  1
  4  6  1  0
  6  7  2  0
  7  8  1  0
  8  9  2  0
  9 10  1  0
 10 11  2  0
 10 12  1  0
 12 13  1  0
 13 14  1  1
 13 15  1  0
 15 16  1  0
 16 17  1  0
 18 17  1  6
 18 19  1  0
 11  6  1  0
 18 12  1  0
 19  9  1  0
M  END
>  <assay_chembl_id>  (61) 
CHEMBL861243

>  <assay_description>  (61) 
Displacement of [3H]5HT from human recombinant 5HT2B receptor expressed in CHO cells

>  <parent_molecule_chembl_id>  (61) 
CHEMBL206394

>  <canonical_smiles>  (61) 
CCO[C@@H](C)c1ccc2c(n1)N1[C@H](C)CNC[C@H]1C2

>  <standard_type>  (61) 
Ki

>  <standard_relation>  (61) 
=

>  <standard_value>  (61) 
295.0

>  <standard_units>  (61) 
nM

>  <target_pref_name>  (61) 
Serotonin 2b (5-HT2b) receptor

>  <target_chembl_id>  (61) 
CHEMBL1833

>  <target_organism>  (61) 
Homo sapiens

>  <pchembl_median>  (61) 
5.98

$$$$
CHEMBL382618
     RDKit          2D

 17 19  0  0  0  0  0  0  0  0999 V2000
    3.7500   -1.2990    0.0000 C   0  0  0  0  0  0  0  0  0  0  0  0
    3.0000    0.0000    0.0000 C   0  0  0  0  0  0  0  0  0  0  0  0
    3.7500    1.2990    0.0000 O   0  0  0  0  0  0  0  0  0  0  0  0
    1.5000    0.0000    0.0000 C   0  0  0  0  0  0  0  0  0  0  0  0
    0.7500   -1.2990    0.0000 C   0  0  0  0  0  0  0  0  0  0  0  0
   -0.7500   -1.2990    0.0000 C   0  0  0  0  0  0  0  0  0  0  0  0
   -1.5000    0.0000    0.0000 C   0  0  0  0  0  0  0  0  0  0  0  0
   -0.7500    1.2990    0.0000 C   0  0  0  0  0  0  0  0  0  0  0  0
    0.7500    1.2990    0.0000 N   0  0  0  0  0  0  0  0  0  0  0  0
   -1.7537    2.4138    0.0000 N   0  0  0  0  0  0  0  0  0  0  0  0
   -1.5969    3.9055    0.0000 C   0  0  0  0  0  0  0  0  0  0  0  0
   -0.2266    4.5156    0.0000 C   0  0  0  0  0  0  0  0  0  0  0  0
   -2.8104    4.7872    0.0000 C   0  0  0  0  0  0  0  0  0  0  0  0
   -4.1807    4.1771    0.0000 N   0  0  0  0  0  0  0  0  0  0  0  0
   -4.3375    2.6853    0.0000 C   0  0  0  0  0  0  0  0  0  0  0  0
   -3.1240    1.8037    0.0000 C   0  0  0  0  0  0  0  0  0  0  0  0
   -2.9672    0.3119    0.0000 C   0  0  0  0  0  0  0  0  0  0  0  0
  2  1  1  1
  2  3  1  0
  2  4  1  0
  4  5  2  0
  5  6  1  0
  6  7  2  0
  7  8  1  0
  8  9  2  0
  8 10  1  0
 10 11  1  0
 11 12  1  1
 11 13  1  0
 13 14  1  0
 14 15  1  0
 16 15  1  6
 16 17  1  0
  9  4  1  0
 16 10  1  0
 17  7  1  0
M  END
>  <assay_chembl_id>  (62) 
CHEMBL861243

>  <assay_description>  (62) 
Displacement of [3H]5HT from human recombinant 5HT2B receptor expressed in CHO cells

>  <parent_molecule_chembl_id>  (62) 
CHEMBL382618

>  <canonical_smiles>  (62) 
C[C@H](O)c1ccc2c(n1)N1[C@H](C)CNC[C@H]1C2

>  <standard_type>  (62) 
Ki

>  <standard_relation>  (62) 
=

>  <standard_value>  (62) 
835.0

>  <standard_units>  (62) 
nM

>  <target_pref_name>  (62) 
Serotonin 2b (5-HT2b) receptor

>  <target_chembl_id>  (62) 
CHEMBL1833

>  <target_organism>  (62) 
Homo sapiens

>  <pchembl_median>  (62) 
7.4

$$$$
CHEMBL203013
     RDKit          2D

 20 23  0  0  0  0  0  0  0  0999 V2000
    3.0000    0.0000    0.0000 C   0  0  0  0  0  0  0  0  0  0  0  0
    1.5000    0.0000    0.0000 C   0  0  0  0  0  0  0  0  0  0  0  0
    0.7500   -1.2990    0.0000 C   0  0  0  0  0  0  0  0  0  0  0  0
   -0.7500   -1.2990    0.0000 N   0  0  0  0  0  0  0  0  0  0  0  0
   -1.5000    0.0000    0.0000 C   0  0  0  0  0  0  0  0  0  0  0  0
   -0.7500    1.2990    0.0000 C   0  0  0  0  0  0  0  0  0  0  0  0
   -1.2135    2.7256    0.0000 C   0  0  0  0  0  0  0  0  0  0  0  0
   -0.0000    3.6073    0.0000 C   0  0  0  0  0  0  0  0  0  0  0  0
    0.1568    5.0991    0.0000 C   0  0  0  0  0  0  0  0  0  0  0  0
    1.5271    5.7092    0.0000 C   0  0  0  0  0  0  0  0  0  0  0  0
    2.7406    4.8275    0.0000 C   0  0  0  0  0  0  0  0  0  0  0  0
    4.1110    5.4376    0.0000 C   0  0  0  0  0  0  0  0  0  0  0  0
    5.3245    4.5559    0.0000 O   0  0  0  0  0  0  0  0  0  0  0  0
    6.6948    5.1660    0.0000 C   0  0  0  0  0  0  0  0  0  0  0  0
    7.9083    4.2844    0.0000 C   0  0  0  0  0  0  0  0  0  0  0  0
    9.4001    4.1276    0.0000 C   0  0  0  0  0  0  0  0  0  0  0  0
    8.5184    2.9140    0.0000 C   0  0  0  0  0  0  0  0  0  0  0  0
    2.5838    3.3357    0.0000 N   0  0  0  0  0  0  0  0  0  0  0  0
    1.2135    2.7256    0.0000 C   0  0  0  0  0  0  0  0  0  0  0  0
    0.7500    1.2990    0.0000 N   0  0  0  0  0  0  0  0  0  0  0  0
  2  1  1  6
  2  3  1  0
  3  4  1  0
  4  5  1  0
  6  5  1  1
  6  7  1  0
  7  8  1  0
  8  9  2  0
  9 10  1  0
 10 11  2  0
 11 12  1  0
 12 13  1  0
 13 14  1  0
 14 15  1  0
 15 16  1  0
 16 17  1  0
 11 18  1  0
 18 19  2  0
 19 20  1  0
 20  2  1  0
 20  6  1  0
 19  8  1  0
 17 15  1  0
M  END
>  <assay_chembl_id>  (63) 
CHEMBL861243

>  <assay_description>  (63) 
Displacement of [3H]5HT from human recombinant 5HT2B receptor expressed in CHO cells

>  <parent_molecule_chembl_id>  (63) 
CHEMBL203013

>  <canonical_smiles>  (63) 
C[C@@H]1CNC[C@H]2Cc3ccc(COCC4CC4)nc3N12

>  <standard_type>  (63) 
Ki

>  <standard_relation>  (63) 
=

>  <standard_value>  (63) 
174.0

>  <standard_units>  (63) 
nM

>  <target_pref_name>  (63) 
Serotonin 2b (5-HT2b) receptor

>  <target_chembl_id>  (63) 
CHEMBL1833

>  <target_organism>  (63) 
Homo sapiens

>  <pchembl_median>  (63) 
5.1

$$$$
CHEMBL383051
     RDKit          2D

 17 19  0  0  0  0  0  0  0  0999 V2000
    5.2500   -1.2990    0.0000 C   0  0  0  0  0  0  0  0  0  0  0  0
    3.7500   -1.2990    0.0000 O   0  0  0  0  0  0  0  0  0  0  0  0
    3.0000    0.0000    0.0000 C   0  0  0  0  0  0  0  0  0  0  0  0
    1.5000    0.0000    0.0000 C   0  0  0  0  0  0  0  0  0  0  0  0
    0.7500   -1.2990    0.0000 C   0  0  0  0  0  0  0  0  0  0  0  0
   -0.7500   -1.2990    0.0000 C   0  0  0  0  0  0  0  0  0  0  0  0
   -1.5000    0.0000    0.0000 C   0  0  0  0  0  0  0  0  0  0  0  0
   -0.7500    1.2990    0.0000 C   0  0  0  0  0  0  0  0  0  0  0  0
    0.7500    1.2990    0.0000 N   0  0  0  0  0  0  0  0  0  0  0  0
   -1.7537    2.4138    0.0000 N   0  0  0  0  0  0  0  0  0  0  0  0
   -1.5969    3.9055    0.0000 C   0  0  0  0  0  0  0  0  0  0  0  0
   -0.2266    4.5156    0.0000 C   0  0  0  0  0  0  0  0  0  0  0  0
   -2.8104    4.7872    0.0000 C   0  0  0  0  0  0  0  0  0  0  0  0
   -4.1807    4.1771    0.0000 N   0  0  0  0  0  0  0  0  0  0  0  0
   -4.3375    2.6853    0.0000 C   0  0  0  0  0  0  0  0  0  0  0  0
   -3.1240    1.8037    0.0000 C   0  0  0  0  0  0  0  0  0  0  0  0
   -2.9672    0.3119    0.0000 C   0  0  0  0  0  0  0  0  0  0  0  0
  1  2  1  0
  2  3  1  0
  3  4  1  0
  4  5  2  0
  5  6  1  0
  6  7  2  0
  7  8  1  0
  8  9  2  0
  8 10  1  0
 10 11  1  0
 11 12  1  1
 11 13  1  0
 13 14  1  0
 14 15  1  0
 16 15  1  6
 16 17  1  0
  9  4  1  0
 16 10  1  0
 17  7  1  0
M  END
>  <assay_chembl_id>  (64) 
CHEMBL861243

>  <assay_description>  (64) 
Displacement of [3H]5HT from human recombinant 5HT2B receptor expressed in CHO cells

>  <parent_molecule_chembl_id>  (64) 
CHEMBL383051

>  <canonical_smiles>  (64) 
COCc1ccc2c(n1)N1[C@H](C)CNC[C@H]1C2

>  <standard_type>  (64) 
Ki

>  <standard_relation>  (64) 
=

>  <standard_value>  (64) 
379.0

>  <standard_units>  (64) 
nM

>  <target_pref_name>  (64) 
Serotonin 2b (5-HT2b) receptor

>  <target_chembl_id>  (64) 
CHEMBL1833

>  <target_organism>  (64) 
Homo sapiens

>  <pchembl_median>  (64) 
5.8

$$$$
CHEMBL206386
     RDKit          2D

 16 18  0  0  0  0  0  0  0  0999 V2000
    3.0000    0.0000    0.0000 C   0  0  0  0  0  0  0  0  0  0  0  0
    1.5000    0.0000    0.0000 C   0  0  0  0  0  0  0  0  0  0  0  0
    0.7500   -1.2990    0.0000 C   0  0  0  0  0  0  0  0  0  0  0  0
   -0.7500   -1.2990    0.0000 N   0  0  0  0  0  0  0  0  0  0  0  0
   -1.5000    0.0000    0.0000 C   0  0  0  0  0  0  0  0  0  0  0  0
   -0.7500    1.2990    0.0000 C   0  0  0  0  0  0  0  0  0  0  0  0
   -1.2135    2.7256    0.0000 C   0  0  0  0  0  0  0  0  0  0  0  0
   -0.0000    3.6073    0.0000 C   0  0  0  0  0  0  0  0  0  0  0  0
    0.1568    5.0991    0.0000 C   0  0  0  0  0  0  0  0  0  0  0  0
    1.5271    5.7092    0.0000 C   0  0  0  0  0  0  0  0  0  0  0  0
    2.7406    4.8275    0.0000 C   0  0  0  0  0  0  0  0  0  0  0  0
    4.1110    5.4376    0.0000 C   0  0  0  0  0  0  0  0  0  0  0  0
    5.3245    4.5559    0.0000 O   0  0  0  0  0  0  0  0  0  0  0  0
    2.5838    3.3357    0.0000 N   0  0  0  0  0  0  0  0  0  0  0  0
    1.2135    2.7256    0.0000 C   0  0  0  0  0  0  0  0  0  0  0  0
    0.7500    1.2990    0.0000 N   0  0  0  0  0  0  0  0  0  0  0  0
  2  1  1  6
  2  3  1  0
  3  4  1  0
  4  5  1  0
  6  5  1  1
  6  7  1  0
  7  8  1  0
  8  9  2  0
  9 10  1  0
 10 11  2  0
 11 12  1  0
 12 13  1  0
 11 14  1  0
 14 15  2  0
 15 16  1  0
 16  2  1  0
 16  6  1  0
 15  8  1  0
M  END
>  <assay_chembl_id>  (65) 
CHEMBL861243

>  <assay_description>  (65) 
Displacement of [3H]5HT from human recombinant 5HT2B receptor expressed in CHO cells

>  <parent_molecule_chembl_id>  (65) 
CHEMBL206386

>  <canonical_smiles>  (65) 
C[C@@H]1CNC[C@H]2Cc3ccc(CO)nc3N12

>  <standard_type>  (65) 
Ki

>  <standard_relation>  (65) 
=

>  <standard_value>  (65) 
1139.0

>  <standard_units>  (65) 
nM

>  <target_pref_name>  (65) 
Serotonin 2b (5-HT2b) receptor

>  <target_chembl_id>  (65) 
CHEMBL1833

>  <target_organism>  (65) 
Homo sapiens

>  <pchembl_median>  (65) 
6.61

$$$$
CHEMBL206333
     RDKit          2D

 18 20  0  0  0  0  0  0  0  0999 V2000
    3.0000    0.0000    0.0000 C   0  0  0  0  0  0  0  0  0  0  0  0
    1.5000    0.0000    0.0000 C   0  0  0  0  0  0  0  0  0  0  0  0
    0.7500   -1.2990    0.0000 C   0  0  0  0  0  0  0  0  0  0  0  0
   -0.7500   -1.2990    0.0000 N   0  0  0  0  0  0  0  0  0  0  0  0
   -1.5000    0.0000    0.0000 C   0  0  0  0  0  0  0  0  0  0  0  0
   -0.7500    1.2990    0.0000 C   0  0  0  0  0  0  0  0  0  0  0  0
   -1.2135    2.7256    0.0000 C   0  0  0  0  0  0  0  0  0  0  0  0
   -0.0000    3.6073    0.0000 C   0  0  0  0  0  0  0  0  0  0  0  0
    0.1568    5.0991    0.0000 C   0  0  0  0  0  0  0  0  0  0  0  0
    1.5271    5.7092    0.0000 C   0  0  0  0  0  0  0  0  0  0  0  0
    2.7406    4.8275    0.0000 C   0  0  0  0  0  0  0  0  0  0  0  0
    4.1110    5.4376    0.0000 C   0  0  0  0  0  0  0  0  0  0  0  0
    5.4813    6.0477    0.0000 F   0  0  0  0  0  0  0  0  0  0  0  0
    4.7211    4.0673    0.0000 F   0  0  0  0  0  0  0  0  0  0  0  0
    3.5008    6.8079    0.0000 F   0  0  0  0  0  0  0  0  0  0  0  0
    2.5838    3.3357    0.0000 N   0  0  0  0  0  0  0  0  0  0  0  0
    1.2135    2.7256    0.0000 C   0  0  0  0  0  0  0  0  0  0  0  0
    0.7500    1.2990    0.0000 N   0  0  0  0  0  0  0  0  0  0  0  0
  2  1  1  6
  2  3  1  0
  3  4  1  0
  4  5  1  0
  6  5  1  1
  6  7  1  0
  7  8  1  0
  8  9  2  0
  9 10  1  0
 10 11  2  0
 11 12  1  0
 12 13  1  0
 12 14  1  0
 12 15  1  0
 11 16  1  0
 16 17  2  0
 17 18  1  0
 18  2  1  0
 18  6  1  0
 17  8  1  0
M  END
>  <assay_chembl_id>  (66) 
CHEMBL861243

>  <assay_description>  (66) 
Displacement of [3H]5HT from human recombinant 5HT2B receptor expressed in CHO cells

>  <parent_molecule_chembl_id>  (66) 
CHEMBL206333

>  <canonical_smiles>  (66) 
C[C@@H]1CNC[C@H]2Cc3ccc(C(F)(F)F)nc3N12

>  <standard_type>  (66) 
Ki

>  <standard_relation>  (66) 
=

>  <standard_value>  (66) 
68.0

>  <standard_units>  (66) 
nM

>  <target_pref_name>  (66) 
Serotonin 2b (5-HT2b) receptor

>  <target_chembl_id>  (66) 
CHEMBL1833

>  <target_organism>  (66) 
Homo sapiens

>  <pchembl_median>  (66) 
8.0

$$$$
CHEMBL206845
     RDKit          2D

 15 17  0  0  0  0  0  0  0  0999 V2000
    3.0000    0.0000    0.0000 C   0  0  0  0  0  0  0  0  0  0  0  0
    1.5000    0.0000    0.0000 C   0  0  0  0  0  0  0  0  0  0  0  0
    0.7500   -1.2990    0.0000 C   0  0  0  0  0  0  0  0  0  0  0  0
   -0.7500   -1.2990    0.0000 C   0  0  0  0  0  0  0  0  0  0  0  0
   -1.5000    0.0000    0.0000 C   0  0  0  0  0  0  0  0  0  0  0  0
   -0.7500    1.2990    0.0000 C   0  0  0  0  0  0  0  0  0  0  0  0
    0.7500    1.2990    0.0000 N   0  0  0  0  0  0  0  0  0  0  0  0
   -1.7537    2.4138    0.0000 N   0  0  0  0  0  0  0  0  0  0  0  0
   -1.5969    3.9055    0.0000 C   0  0  0  0  0  0  0  0  0  0  0  0
   -0.2266    4.5156    0.0000 C   0  0  0  0  0  0  0  0  0  0  0  0
   -2.8104    4.7872    0.0000 C   0  0  0  0  0  0  0  0  0  0  0  0
   -4.1807    4.1771    0.0000 N   0  0  0  0  0  0  0  0  0  0  0  0
   -4.3375    2.6853    0.0000 C   0  0  0  0  0  0  0  0  0  0  0  0
   -3.1240    1.8037    0.0000 C   0  0  0  0  0  0  0  0  0  0  0  0
   -2.9672    0.3119    0.0000 C   0  0  0  0  0  0  0  0  0  0  0  0
  1  2  1  0
  2  3  2  0
  3  4  1  0
  4  5  2  0
  5  6  1  0
  6  7  2  0
  6  8  1  0
  8  9  1  0
  9 10  1  1
  9 11  1  0
 11 12  1  0
 12 13  1  0
 14 13  1  6
 14 15  1  0
  7  2  1  0
 14  8  1  0
 15  5  1  0
M  END
>  <assay_chembl_id>  (67) 
CHEMBL861243

>  <assay_description>  (67) 
Displacement of [3H]5HT from human recombinant 5HT2B receptor expressed in CHO cells

>  <parent_molecule_chembl_id>  (67) 
CHEMBL206845

>  <canonical_smiles>  (67) 
Cc1ccc2c(n1)N1[C@H](C)CNC[C@H]1C2

>  <standard_type>  (67) 
Ki

>  <standard_relation>  (67) 
=

>  <standard_value>  (67) 
77.0

>  <standard_units>  (67) 
nM

>  <target_pref_name>  (67) 
Serotonin 2b (5-HT2b) receptor

>  <target_chembl_id>  (67) 
CHEMBL1833

>  <target_organism>  (67) 
Homo sapiens

>  <pchembl_median>  (67) 
6.02

$$$$
CHEMBL205671
     RDKit          2D

 16 18  0  0  0  0  0  0  0  0999 V2000
    3.7500   -1.2990    0.0000 C   0  0  0  0  0  0  0  0  0  0  0  0
    3.0000    0.0000    0.0000 O   0  0  0  0  0  0  0  0  0  0  0  0
    1.5000    0.0000    0.0000 C   0  0  0  0  0  0  0  0  0  0  0  0
    0.7500   -1.2990    0.0000 C   0  0  0  0  0  0  0  0  0  0  0  0
   -0.7500   -1.2990    0.0000 C   0  0  0  0  0  0  0  0  0  0  0  0
   -1.5000    0.0000    0.0000 C   0  0  0  0  0  0  0  0  0  0  0  0
   -0.7500    1.2990    0.0000 C   0  0  0  0  0  0  0  0  0  0  0  0
    0.7500    1.2990    0.0000 N   0  0  0  0  0  0  0  0  0  0  0  0
   -1.7537    2.4138    0.0000 N   0  0  0  0  0  0  0  0  0  0  0  0
   -1.5969    3.9055    0.0000 C   0  0  0  0  0  0  0  0  0  0  0  0
   -0.2266    4.5156    0.0000 C   0  0  0  0  0  0  0  0  0  0  0  0
   -2.8104    4.7872    0.0000 C   0  0  0  0  0  0  0  0  0  0  0  0
   -4.1807    4.1771    0.0000 N   0  0  0  0  0  0  0  0  0  0  0  0
   -4.3375    2.6853    0.0000 C   0  0  0  0  0  0  0  0  0  0  0  0
   -3.1240    1.8037    0.0000 C   0  0  0  0  0  0  0  0  0  0  0  0
   -2.9672    0.3119    0.0000 C   0  0  0  0  0  0  0  0  0  0  0  0
  1  2  1  0
  2  3  1  0
  3  4  2  0
  4  5  1  0
  5  6  2  0
  6  7  1  0
  7  8  2  0
  7  9  1  0
  9 10  1  0
 10 11  1  1
 10 12  1  0
 12 13  1  0
 13 14  1  0
 15 14  1  6
 15 16  1  0
  8  3  1  0
 15  9  1  0
 16  6  1  0
M  END
>  <assay_chembl_id>  (68) 
CHEMBL861243

>  <assay_description>  (68) 
Displacement of [3H]5HT from human recombinant 5HT2B receptor expressed in CHO cells

>  <parent_molecule_chembl_id>  (68) 
CHEMBL205671

>  <canonical_smiles>  (68) 
COc1ccc2c(n1)N1[C@H](C)CNC[C@H]1C2

>  <standard_type>  (68) 
Ki

>  <standard_relation>  (68) 
=

>  <standard_value>  (68) 
440.0

>  <standard_units>  (68) 
nM

>  <target_pref_name>  (68) 
Serotonin 2b (5-HT2b) receptor

>  <target_chembl_id>  (68) 
CHEMBL1833

>  <target_organism>  (68) 
Homo sapiens

>  <pchembl_median>  (68) 
7.05

$$$$
CHEMBL202795
     RDKit          2D

 16 18  0  0  0  0  0  0  0  0999 V2000
    3.0000    0.0000    0.0000 C   0  0  0  0  0  0  0  0  0  0  0  0
    1.5000    0.0000    0.0000 C   0  0  0  0  0  0  0  0  0  0  0  0
    0.7500   -1.2990    0.0000 C   0  0  0  0  0  0  0  0  0  0  0  0
   -0.7500   -1.2990    0.0000 N   0  0  0  0  0  0  0  0  0  0  0  0
   -1.5000    0.0000    0.0000 C   0  0  0  0  0  0  0  0  0  0  0  0
   -0.7500    1.2990    0.0000 C   0  0  0  0  0  0  0  0  0  0  0  0
   -1.2135    2.7256    0.0000 C   0  0  0  0  0  0  0  0  0  0  0  0
   -0.0000    3.6073    0.0000 C   0  0  0  0  0  0  0  0  0  0  0  0
    0.1568    5.0991    0.0000 C   0  0  0  0  0  0  0  0  0  0  0  0
    1.5271    5.7092    0.0000 C   0  0  0  0  0  0  0  0  0  0  0  0
    2.7406    4.8275    0.0000 C   0  0  0  0  0  0  0  0  0  0  0  0
    4.1110    5.4376    0.0000 C   0  0  0  0  0  0  0  0  0  0  0  0
    5.4813    6.0477    0.0000 N   0  0  0  0  0  0  0  0  0  0  0  0
    2.5838    3.3357    0.0000 N   0  0  0  0  0  0  0  0  0  0  0  0
    1.2135    2.7256    0.0000 C   0  0  0  0  0  0  0  0  0  0  0  0
    0.7500    1.2990    0.0000 N   0  0  0  0  0  0  0  0  0  0  0  0
  2  1  1  6
  2  3  1  0
  3  4  1  0
  4  5  1  0
  6  5  1  1
  6  7  1  0
  7  8  1  0
  8  9  2  0
  9 10  1  0
 10 11  2  0
 11 12  1  0
 12 13  3  0
 11 14  1  0
 14 15  2  0
 15 16  1  0
 16  2  1  0
 16  6  1  0
 15  8  1  0
M  END
>  <assay_chembl_id>  (69) 
CHEMBL861243

>  <assay_description>  (69) 
Displacement of [3H]5HT from human recombinant 5HT2B receptor expressed in CHO cells

>  <parent_molecule_chembl_id>  (69) 
CHEMBL202795

>  <canonical_smiles>  (69) 
C[C@@H]1CNC[C@H]2Cc3ccc(C#N)nc3N12

>  <standard_type>  (69) 
Ki

>  <standard_relation>  (69) 
=

>  <standard_value>  (69) 
1820.0

>  <standard_units>  (69) 
nM

>  <target_pref_name>  (69) 
Serotonin 2b (5-HT2b) receptor

>  <target_chembl_id>  (69) 
CHEMBL1833

>  <target_organism>  (69) 
Homo sapiens

>  <pchembl_median>  (69) 
7.89

$$$$
CHEMBL376455
     RDKit          2D

 14 16  0  0  0  0  0  0  0  0999 V2000
    2.6401   -3.1891    0.0000 O   0  0  0  0  0  0  0  0  0  0  0  0
    1.2135   -2.7256    0.0000 C   0  0  0  0  0  0  0  0  0  0  0  0
    0.7500   -1.2990    0.0000 C   0  0  0  0  0  0  0  0  0  0  0  0
    1.5000    0.0000    0.0000 C   0  0  0  0  0  0  0  0  0  0  0  0
    0.7500    1.2990    0.0000 C   0  0  0  0  0  0  0  0  0  0  0  0
   -0.7500    1.2990    0.0000 C   0  0  0  0  0  0  0  0  0  0  0  0
   -1.5000    0.0000    0.0000 C   0  0  0  0  0  0  0  0  0  0  0  0
   -0.7500   -1.2990    0.0000 C   0  0  0  0  0  0  0  0  0  0  0  0
   -1.2135   -2.7256    0.0000 C   0  0  0  0  0  0  0  0  0  0  0  0
   -2.5838   -3.3357    0.0000 C   0  0  0  0  0  0  0  0  0  0  0  0
   -2.7406   -4.8275    0.0000 N   0  0  0  0  0  0  0  0  0  0  0  0
   -1.5271   -5.7092    0.0000 C   0  0  0  0  0  0  0  0  0  0  0  0
   -0.1568   -5.0991    0.0000 C   0  0  0  0  0  0  0  0  0  0  0  0
   -0.0000   -3.6073    0.0000 N   0  0  0  0  0  0  0  0  0  0  0  0
  1  2  2  0
  2  3  1  0
  3  4  2  0
  4  5  1  0
  5  6  2  0
  6  7  1  0
  7  8  2  0
  8  9  1  0
  9 10  1  0
 10 11  1  0
 11 12  1  0
 12 13  1  0
 13 14  1  0
 14  2  1  0
  8  3  1  0
 14  9  1  0
M  END
>  <assay_chembl_id>  (70) 
CHEMBL918966

>  <assay_description>  (70) 
Displacement of [3H]LSD from human recombinant 5HT2B expressed in HEK293E cells

>  <parent_molecule_chembl_id>  (70) 
CHEMBL376455

>  <canonical_smiles>  (70) 
O=C1c2ccccc2C2CNCCN12

>  <standard_type>  (70) 
Ki

>  <standard_relation>  (70) 
=

>  <standard_value>  (70) 
4540.0

>  <standard_units>  (70) 
nM

>  <target_pref_name>  (70) 
Serotonin 2b (5-HT2b) receptor

>  <target_chembl_id>  (70) 
CHEMBL1833

>  <target_organism>  (70) 
Homo sapiens

>  <pchembl_median>  (70) 
6.5

$$$$
CHEMBL223584
     RDKit          2D

 18 20  0  0  0  0  0  0  0  0999 V2000
   -2.6401   -3.1891    0.0000 O   0  0  0  0  0  0  0  0  0  0  0  0
   -1.2135   -2.7256    0.0000 C   0  0  0  0  0  0  0  0  0  0  0  0
   -0.0000   -3.6073    0.0000 C   0  0  0  0  0  0  0  0  0  0  0  0
    1.2135   -2.7256    0.0000 C   0  0  0  0  0  0  0  0  0  0  0  0
    2.5838   -3.3357    0.0000 C   0  0  0  0  0  0  0  0  0  0  0  0
    2.7406   -4.8275    0.0000 C   0  0  0  0  0  0  0  0  0  0  0  0
    1.5271   -5.7092    0.0000 C   0  0  0  0  0  0  0  0  0  0  0  0
    0.1568   -5.0991    0.0000 C   0  0  0  0  0  0  0  0  0  0  0  0
   -1.0567   -5.9808    0.0000 C   0  0  0  0  0  0  0  0  0  0  0  0
   -2.2703   -6.8624    0.0000 F   0  0  0  0  0  0  0  0  0  0  0  0
   -0.1751   -7.1943    0.0000 F   0  0  0  0  0  0  0  0  0  0  0  0
   -1.9384   -4.7672    0.0000 F   0  0  0  0  0  0  0  0  0  0  0  0
    0.7500   -1.2990    0.0000 C   0  0  0  0  0  0  0  0  0  0  0  0
    1.5000    0.0000    0.0000 C   0  0  0  0  0  0  0  0  0  0  0  0
    0.7500    1.2990    0.0000 N   0  0  0  0  0  0  0  0  0  0  0  0
   -0.7500    1.2990    0.0000 C   0  0  0  0  0  0  0  0  0  0  0  0
   -1.5000    0.0000    0.0000 C   0  0  0  0  0  0  0  0  0  0  0  0
   -0.7500   -1.2990    0.0000 N   0  0  0  0  0  0  0  0  0  0  0  0
  1  2  2  0
  2  3  1  0
  3  4  2  0
  4  5  1  0
  5  6  2  0
  6  7  1  0
  7  8  2  0
  8  9  1  0
  9 10  1  0
  9 11  1  0
  9 12  1  0
  4 13  1  0
 13 14  1  6
 14 15  1  0
 15 16  1  0
 16 17  1  0
 17 18  1  0
 18  2  1  0
  8  3  1  0
 18 13  1  0
M  END
>  <assay_chembl_id>  (71) 
CHEMBL918966

>  <assay_description>  (71) 
Displacement of [3H]LSD from human recombinant 5HT2B expressed in HEK293E cells

>  <parent_molecule_chembl_id>  (71) 
CHEMBL223584

>  <canonical_smiles>  (71) 
O=C1c2c(cccc2C(F)(F)F)[C@H]2CNCCN12

>  <standard_type>  (71) 
Ki

>  <standard_relation>  (71) 
=

>  <standard_value>  (71) 
3430.0

>  <standard_units>  (71) 
nM

>  <target_pref_name>  (71) 
Serotonin 2b (5-HT2b) receptor

>  <target_chembl_id>  (71) 
CHEMBL1833

>  <target_organism>  (71) 
Homo sapiens

>  <pchembl_median>  (71) 
5.9

$$$$
CHEMBL222514
     RDKit          2D

 18 20  0  0  0  0  0  0  0  0999 V2000
   -2.6401   -3.1891    0.0000 O   0  0  0  0  0  0  0  0  0  0  0  0
   -1.2135   -2.7256    0.0000 C   0  0  0  0  0  0  0  0  0  0  0  0
   -0.0000   -3.6073    0.0000 C   0  0  0  0  0  0  0  0  0  0  0  0
    1.2135   -2.7256    0.0000 C   0  0  0  0  0  0  0  0  0  0  0  0
    2.5838   -3.3357    0.0000 C   0  0  0  0  0  0  0  0  0  0  0  0
    2.7406   -4.8275    0.0000 C   0  0  0  0  0  0  0  0  0  0  0  0
    1.5271   -5.7092    0.0000 C   0  0  0  0  0  0  0  0  0  0  0  0
    0.1568   -5.0991    0.0000 C   0  0  0  0  0  0  0  0  0  0  0  0
   -1.0567   -5.9808    0.0000 C   0  0  0  0  0  0  0  0  0  0  0  0
   -2.2703   -6.8624    0.0000 F   0  0  0  0  0  0  0  0  0  0  0  0
   -0.1751   -7.1943    0.0000 F   0  0  0  0  0  0  0  0  0  0  0  0
   -1.9384   -4.7672    0.0000 F   0  0  0  0  0  0  0  0  0  0  0  0
    0.7500   -1.2990    0.0000 C   0  0  0  0  0  0  0  0  0  0  0  0
    1.5000    0.0000    0.0000 C   0  0  0  0  0  0  0  0  0  0  0  0
    0.7500    1.2990    0.0000 N   0  0  0  0  0  0  0  0  0  0  0  0
   -0.7500    1.2990    0.0000 C   0  0  0  0  0  0  0  0  0  0  0  0
   -1.5000    0.0000    0.0000 C   0  0  0  0  0  0  0  0  0  0  0  0
   -0.7500   -1.2990    0.0000 N   0  0  0  0  0  0  0  0  0  0  0  0
  1  2  2  0
  2  3  1  0
  3  4  2  0
  4  5  1  0
  5  6  2  0
  6  7  1  0
  7  8  2  0
  8  9  1  0
  9 10  1  0
  9 11  1  0
  9 12  1  0
  4 13  1  0
 13 14  1  1
 14 15  1  0
 15 16  1  0
 16 17  1  0
 17 18  1  0
 18  2  1  0
  8  3  1  0
 18 13  1  0
M  END
>  <assay_chembl_id>  (72) 
CHEMBL918966

>  <assay_description>  (72) 
Displacement of [3H]LSD from human recombinant 5HT2B expressed in HEK293E cells

>  <parent_molecule_chembl_id>  (72) 
CHEMBL222514

>  <canonical_smiles>  (72) 
O=C1c2c(cccc2C(F)(F)F)[C@@H]2CNCCN12

>  <standard_type>  (72) 
Ki

>  <standard_relation>  (72) 
=

>  <standard_value>  (72) 
74.0

>  <standard_units>  (72) 
nM

>  <target_pref_name>  (72) 
Serotonin 2b (5-HT2b) receptor

>  <target_chembl_id>  (72) 
CHEMBL1833

>  <target_organism>  (72) 
Homo sapiens

>  <pchembl_median>  (72) 
6.9

$$$$
CHEMBL223628
     RDKit          2D

 18 20  0  0  0  0  0  0  0  0999 V2000
    2.1135   -8.3542    0.0000 C   0  0  0  0  0  0  0  0  0  0  0  0
    0.8999   -7.4725    0.0000 C   0  0  0  0  0  0  0  0  0  0  0  0
   -0.4704   -8.0826    0.0000 C   0  0  0  0  0  0  0  0  0  0  0  0
    1.0567   -5.9808    0.0000 O   0  0  0  0  0  0  0  0  0  0  0  0
   -0.1568   -5.0991    0.0000 C   0  0  0  0  0  0  0  0  0  0  0  0
   -1.5271   -5.7092    0.0000 C   0  0  0  0  0  0  0  0  0  0  0  0
   -2.7406   -4.8275    0.0000 C   0  0  0  0  0  0  0  0  0  0  0  0
   -2.5838   -3.3357    0.0000 C   0  0  0  0  0  0  0  0  0  0  0  0
   -1.2135   -2.7256    0.0000 C   0  0  0  0  0  0  0  0  0  0  0  0
   -0.0000   -3.6073    0.0000 C   0  0  0  0  0  0  0  0  0  0  0  0
    1.2135   -2.7256    0.0000 C   0  0  0  0  0  0  0  0  0  0  0  0
    2.6401   -3.1891    0.0000 O   0  0  0  0  0  0  0  0  0  0  0  0
    0.7500   -1.2990    0.0000 N   0  0  0  0  0  0  0  0  0  0  0  0
    1.5000    0.0000    0.0000 C   0  0  0  0  0  0  0  0  0  0  0  0
    0.7500    1.2990    0.0000 C   0  0  0  0  0  0  0  0  0  0  0  0
   -0.7500    1.2990    0.0000 N   0  0  0  0  0  0  0  0  0  0  0  0
   -1.5000    0.0000    0.0000 C   0  0  0  0  0  0  0  0  0  0  0  0
   -0.7500   -1.2990    0.0000 C   0  0  0  0  0  0  0  0  0  0  0  0
  1  2  1  0
  2  3  1  0
  2  4  1  0
  4  5  1  0
  5  6  2  0
  6  7  1  0
  7  8  2  0
  8  9  1  0
  9 10  2  0
 10 11  1  0
 11 12  2  0
 11 13  1  0
 13 14  1  0
 14 15  1  0
 15 16  1  0
 16 17  1  0
 17 18  1  0
 10  5  1  0
 18 13  1  0
 18  9  1  0
M  END
>  <assay_chembl_id>  (73) 
CHEMBL918966

>  <assay_description>  (73) 
Displacement of [3H]LSD from human recombinant 5HT2B expressed in HEK293E cells

>  <parent_molecule_chembl_id>  (73) 
CHEMBL223628

>  <canonical_smiles>  (73) 
CC(C)Oc1cccc2c1C(=O)N1CCNCC21

>  <standard_type>  (73) 
Ki

>  <standard_relation>  (73) 
=

>  <standard_value>  (73) 
1600.0

>  <standard_units>  (73) 
nM

>  <target_pref_name>  (73) 
Serotonin 2b (5-HT2b) receptor

>  <target_chembl_id>  (73) 
CHEMBL1833

>  <target_organism>  (73) 
Homo sapiens

>  <pchembl_median>  (73) 
5.26

$$$$
CHEMBL387344
     RDKit          2D

 15 17  0  0  0  0  0  0  0  0999 V2000
   -2.6401   -3.1891    0.0000 O   0  0  0  0  0  0  0  0  0  0  0  0
   -1.2135   -2.7256    0.0000 C   0  0  0  0  0  0  0  0  0  0  0  0
   -0.0000   -3.6073    0.0000 C   0  0  0  0  0  0  0  0  0  0  0  0
    0.1568   -5.0991    0.0000 C   0  0  0  0  0  0  0  0  0  0  0  0
   -1.0567   -5.9808    0.0000 O   0  0  0  0  0  0  0  0  0  0  0  0
    1.5271   -5.7092    0.0000 C   0  0  0  0  0  0  0  0  0  0  0  0
    2.7406   -4.8275    0.0000 C   0  0  0  0  0  0  0  0  0  0  0  0
    2.5838   -3.3357    0.0000 C   0  0  0  0  0  0  0  0  0  0  0  0
    1.2135   -2.7256    0.0000 C   0  0  0  0  0  0  0  0  0  0  0  0
    0.7500   -1.2990    0.0000 C   0  0  0  0  0  0  0  0  0  0  0  0
    1.5000    0.0000    0.0000 C   0  0  0  0  0  0  0  0  0  0  0  0
    0.7500    1.2990    0.0000 N   0  0  0  0  0  0  0  0  0  0  0  0
   -0.7500    1.2990    0.0000 C   0  0  0  0  0  0  0  0  0  0  0  0
   -1.5000    0.0000    0.0000 C   0  0  0  0  0  0  0  0  0  0  0  0
   -0.7500   -1.2990    0.0000 N   0  0  0  0  0  0  0  0  0  0  0  0
  1  2  2  0
  2  3  1  0
  3  4  2  0
  4  5  1  0
  4  6  1  0
  6  7  2  0
  7  8  1  0
  8  9  2  0
  9 10  1  0
 10 11  1  0
 11 12  1  0
 12 13  1  0
 13 14  1  0
 14 15  1  0
 15  2  1  0
  9  3  1  0
 15 10  1  0
M  END
>  <assay_chembl_id>  (74) 
CHEMBL918966

>  <assay_description>  (74) 
Displacement of [3H]LSD from human recombinant 5HT2B expressed in HEK293E cells

>  <parent_molecule_chembl_id>  (74) 
CHEMBL387344

>  <canonical_smiles>  (74) 
O=C1c2c(O)cccc2C2CNCCN12

>  <standard_type>  (74) 
Ki

>  <standard_relation>  (74) 
=

>  <standard_value>  (74) 
3740.0

>  <standard_units>  (74) 
nM

>  <target_pref_name>  (74) 
Serotonin 2b (5-HT2b) receptor

>  <target_chembl_id>  (74) 
CHEMBL1833

>  <target_organism>  (74) 
Homo sapiens

>  <pchembl_median>  (74) 
8.24

$$$$
CHEMBL220207
     RDKit          2D

 16 18  0  0  0  0  0  0  0  0999 V2000
    0.8999   -7.4725    0.0000 C   0  0  0  0  0  0  0  0  0  0  0  0
    1.0567   -5.9808    0.0000 S   0  0  0  0  0  0  0  0  0  0  0  0
   -0.1568   -5.0991    0.0000 C   0  0  0  0  0  0  0  0  0  0  0  0
   -1.5271   -5.7092    0.0000 C   0  0  0  0  0  0  0  0  0  0  0  0
   -2.7406   -4.8275    0.0000 C   0  0  0  0  0  0  0  0  0  0  0  0
   -2.5838   -3.3357    0.0000 C   0  0  0  0  0  0  0  0  0  0  0  0
   -1.2135   -2.7256    0.0000 C   0  0  0  0  0  0  0  0  0  0  0  0
   -0.0000   -3.6073    0.0000 C   0  0  0  0  0  0  0  0  0  0  0  0
    1.2135   -2.7256    0.0000 C   0  0  0  0  0  0  0  0  0  0  0  0
    2.6401   -3.1891    0.0000 O   0  0  0  0  0  0  0  0  0  0  0  0
    0.7500   -1.2990    0.0000 N   0  0  0  0  0  0  0  0  0  0  0  0
    1.5000    0.0000    0.0000 C   0  0  0  0  0  0  0  0  0  0  0  0
    0.7500    1.2990    0.0000 C   0  0  0  0  0  0  0  0  0  0  0  0
   -0.7500    1.2990    0.0000 N   0  0  0  0  0  0  0  0  0  0  0  0
   -1.5000    0.0000    0.0000 C   0  0  0  0  0  0  0  0  0  0  0  0
   -0.7500   -1.2990    0.0000 C   0  0  0  0  0  0  0  0  0  0  0  0
  1  2  1  0
  2  3  1  0
  3  4  2  0
  4  5  1  0
  5  6  2  0
  6  7  1  0
  7  8  2  0
  8  9  1  0
  9 10  2  0
  9 11  1  0
 11 12  1  0
 12 13  1  0
 13 14  1  0
 14 15  1  0
 15 16  1  0
  8  3  1  0
 16 11  1  0
 16  7  1  0
M  END
>  <assay_chembl_id>  (75) 
CHEMBL918966

>  <assay_description>  (75) 
Displacement of [3H]LSD from human recombinant 5HT2B expressed in HEK293E cells

>  <parent_molecule_chembl_id>  (75) 
CHEMBL220207

>  <canonical_smiles>  (75) 
CSc1cccc2c1C(=O)N1CCNCC21

>  <standard_type>  (75) 
Ki

>  <standard_relation>  (75) 
=

>  <standard_value>  (75) 
84.0

>  <standard_units>  (75) 
nM

>  <target_pref_name>  (75) 
Serotonin 2b (5-HT2b) receptor

>  <target_chembl_id>  (75) 
CHEMBL1833

>  <target_organism>  (75) 
Homo sapiens

>  <pchembl_median>  (75) 
7.1

$$$$
CHEMBL223090
     RDKit          2D

 16 18  0  0  0  0  0  0  0  0999 V2000
    2.2703   -6.8624    0.0000 N   0  0  0  0  0  0  0  0  0  0  0  0
    1.0567   -5.9808    0.0000 C   0  0  0  0  0  0  0  0  0  0  0  0
   -0.1568   -5.0991    0.0000 C   0  0  0  0  0  0  0  0  0  0  0  0
   -1.5271   -5.7092    0.0000 C   0  0  0  0  0  0  0  0  0  0  0  0
   -2.7406   -4.8275    0.0000 C   0  0  0  0  0  0  0  0  0  0  0  0
   -2.5838   -3.3357    0.0000 C   0  0  0  0  0  0  0  0  0  0  0  0
   -1.2135   -2.7256    0.0000 C   0  0  0  0  0  0  0  0  0  0  0  0
   -0.0000   -3.6073    0.0000 C   0  0  0  0  0  0  0  0  0  0  0  0
    1.2135   -2.7256    0.0000 C   0  0  0  0  0  0  0  0  0  0  0  0
    2.6401   -3.1891    0.0000 O   0  0  0  0  0  0  0  0  0  0  0  0
    0.7500   -1.2990    0.0000 N   0  0  0  0  0  0  0  0  0  0  0  0
    1.5000    0.0000    0.0000 C   0  0  0  0  0  0  0  0  0  0  0  0
    0.7500    1.2990    0.0000 C   0  0  0  0  0  0  0  0  0  0  0  0
   -0.7500    1.2990    0.0000 N   0  0  0  0  0  0  0  0  0  0  0  0
   -1.5000    0.0000    0.0000 C   0  0  0  0  0  0  0  0  0  0  0  0
   -0.7500   -1.2990    0.0000 C   0  0  0  0  0  0  0  0  0  0  0  0
  1  2  3  0
  2  3  1  0
  3  4  2  0
  4  5  1  0
  5  6  2  0
  6  7  1  0
  7  8  2  0
  8  9  1  0
  9 10  2  0
  9 11  1  0
 11 12  1  0
 12 13  1  0
 13 14  1  0
 14 15  1  0
 15 16  1  0
  8  3  1  0
 16 11  1  0
 16  7  1  0
M  END
>  <assay_chembl_id>  (76) 
CHEMBL918966

>  <assay_description>  (76) 
Displacement of [3H]LSD from human recombinant 5HT2B expressed in HEK293E cells

>  <parent_molecule_chembl_id>  (76) 
CHEMBL223090

>  <canonical_smiles>  (76) 
N#Cc1cccc2c1C(=O)N1CCNCC21

>  <standard_type>  (76) 
Ki

>  <standard_relation>  (76) 
=

>  <standard_value>  (76) 
3930.0

>  <standard_units>  (76) 
nM

>  <target_pref_name>  (76) 
Serotonin 2b (5-HT2b) receptor

>  <target_chembl_id>  (76) 
CHEMBL1833

>  <target_organism>  (76) 
Homo sapiens

>  <pchembl_median>  (76) 
5.9

$$$$
CHEMBL223896
     RDKit          2D

 15 17  0  0  0  0  0  0  0  0999 V2000
   -2.6401   -3.1891    0.0000 O   0  0  0  0  0  0  0  0  0  0  0  0
   -1.2135   -2.7256    0.0000 C   0  0  0  0  0  0  0  0  0  0  0  0
   -0.0000   -3.6073    0.0000 C   0  0  0  0  0  0  0  0  0  0  0  0
    0.1568   -5.0991    0.0000 C   0  0  0  0  0  0  0  0  0  0  0  0
   -1.0567   -5.9808    0.0000 Cl  0  0  0  0  0  0  0  0  0  0  0  0
    1.5271   -5.7092    0.0000 C   0  0  0  0  0  0  0  0  0  0  0  0
    2.7406   -4.8275    0.0000 C   0  0  0  0  0  0  0  0  0  0  0  0
    2.5838   -3.3357    0.0000 C   0  0  0  0  0  0  0  0  0  0  0  0
    1.2135   -2.7256    0.0000 C   0  0  0  0  0  0  0  0  0  0  0  0
    0.7500   -1.2990    0.0000 C   0  0  0  0  0  0  0  0  0  0  0  0
    1.5000    0.0000    0.0000 C   0  0  0  0  0  0  0  0  0  0  0  0
    0.7500    1.2990    0.0000 N   0  0  0  0  0  0  0  0  0  0  0  0
   -0.7500    1.2990    0.0000 C   0  0  0  0  0  0  0  0  0  0  0  0
   -1.5000    0.0000    0.0000 C   0  0  0  0  0  0  0  0  0  0  0  0
   -0.7500   -1.2990    0.0000 N   0  0  0  0  0  0  0  0  0  0  0  0
  1  2  2  0
  2  3  1  0
  3  4  2  0
  4  5  1  0
  4  6  1  0
  6  7  2  0
  7  8  1  0
  8  9  2  0
  9 10  1  0
 10 11  1  0
 11 12  1  0
 12 13  1  0
 13 14  1  0
 14 15  1  0
 15  2  1  0
  9  3  1  0
 15 10  1  0
M  END
>  <assay_chembl_id>  (77) 
CHEMBL918966

>  <assay_description>  (77) 
Displacement of [3H]LSD from human recombinant 5HT2B expressed in HEK293E cells

>  <parent_molecule_chembl_id>  (77) 
CHEMBL223896

>  <canonical_smiles>  (77) 
O=C1c2c(Cl)cccc2C2CNCCN12

>  <standard_type>  (77) 
Ki

>  <standard_relation>  (77) 
=

>  <standard_value>  (77) 
309.0

>  <standard_units>  (77) 
nM

>  <target_pref_name>  (77) 
Serotonin 2b (5-HT2b) receptor

>  <target_chembl_id>  (77) 
CHEMBL1833

>  <target_organism>  (77) 
Homo sapiens

>  <pchembl_median>  (77) 
6.3

$$$$
CHEMBL223469
     RDKit          2D

 15 17  0  0  0  0  0  0  0  0999 V2000
   -2.6401   -3.1891    0.0000 O   0  0  0  0  0  0  0  0  0  0  0  0
   -1.2135   -2.7256    0.0000 C   0  0  0  0  0  0  0  0  0  0  0  0
   -0.0000   -3.6073    0.0000 C   0  0  0  0  0  0  0  0  0  0  0  0
    0.1568   -5.0991    0.0000 C   0  0  0  0  0  0  0  0  0  0  0  0
   -1.0567   -5.9808    0.0000 F   0  0  0  0  0  0  0  0  0  0  0  0
    1.5271   -5.7092    0.0000 C   0  0  0  0  0  0  0  0  0  0  0  0
    2.7406   -4.8275    0.0000 C   0  0  0  0  0  0  0  0  0  0  0  0
    2.5838   -3.3357    0.0000 C   0  0  0  0  0  0  0  0  0  0  0  0
    1.2135   -2.7256    0.0000 C   0  0  0  0  0  0  0  0  0  0  0  0
    0.7500   -1.2990    0.0000 C   0  0  0  0  0  0  0  0  0  0  0  0
    1.5000    0.0000    0.0000 C   0  0  0  0  0  0  0  0  0  0  0  0
    0.7500    1.2990    0.0000 N   0  0  0  0  0  0  0  0  0  0  0  0
   -0.7500    1.2990    0.0000 C   0  0  0  0  0  0  0  0  0  0  0  0
   -1.5000    0.0000    0.0000 C   0  0  0  0  0  0  0  0  0  0  0  0
   -0.7500   -1.2990    0.0000 N   0  0  0  0  0  0  0  0  0  0  0  0
  1  2  2  0
  2  3  1  0
  3  4  2  0
  4  5  1  0
  4  6  1  0
  6  7  2  0
  7  8  1  0
  8  9  2  0
  9 10  1  0
 10 11  1  0
 11 12  1  0
 12 13  1  0
 13 14  1  0
 14 15  1  0
 15  2  1  0
  9  3  1  0
 15 10  1  0
M  END
>  <assay_chembl_id>  (78) 
CHEMBL918966

>  <assay_description>  (78) 
Displacement of [3H]LSD from human recombinant 5HT2B expressed in HEK293E cells

>  <parent_molecule_chembl_id>  (78) 
CHEMBL223469

>  <canonical_smiles>  (78) 
O=C1c2c(F)cccc2C2CNCCN12

>  <standard_type>  (78) 
Ki

>  <standard_relation>  (78) 
=

>  <standard_value>  (78) 
3690.0

>  <standard_units>  (78) 
nM

>  <target_pref_name>  (78) 
Serotonin 2b (5-HT2b) receptor

>  <target_chembl_id>  (78) 
CHEMBL1833

>  <target_organism>  (78) 
Homo sapiens

>  <pchembl_median>  (78) 
7.01

$$$$
CHEMBL219734
     RDKit          2D

 19 21  0  0  0  0  0  0  0  0999 V2000
   -2.6401   -3.1891    0.0000 O   0  0  0  0  0  0  0  0  0  0  0  0
   -1.2135   -2.7256    0.0000 C   0  0  0  0  0  0  0  0  0  0  0  0
   -0.0000   -3.6073    0.0000 C   0  0  0  0  0  0  0  0  0  0  0  0
    0.1568   -5.0991    0.0000 C   0  0  0  0  0  0  0  0  0  0  0  0
   -1.0567   -5.9808    0.0000 O   0  0  0  0  0  0  0  0  0  0  0  0
   -0.8999   -7.4725    0.0000 C   0  0  0  0  0  0  0  0  0  0  0  0
   -0.7431   -8.9643    0.0000 F   0  0  0  0  0  0  0  0  0  0  0  0
   -2.3917   -7.6293    0.0000 F   0  0  0  0  0  0  0  0  0  0  0  0
    0.5918   -7.3158    0.0000 F   0  0  0  0  0  0  0  0  0  0  0  0
    1.5271   -5.7092    0.0000 C   0  0  0  0  0  0  0  0  0  0  0  0
    2.7406   -4.8275    0.0000 C   0  0  0  0  0  0  0  0  0  0  0  0
    2.5838   -3.3357    0.0000 C   0  0  0  0  0  0  0  0  0  0  0  0
    1.2135   -2.7256    0.0000 C   0  0  0  0  0  0  0  0  0  0  0  0
    0.7500   -1.2990    0.0000 C   0  0  0  0  0  0  0  0  0  0  0  0
    1.5000    0.0000    0.0000 C   0  0  0  0  0  0  0  0  0  0  0  0
    0.7500    1.2990    0.0000 N   0  0  0  0  0  0  0  0  0  0  0  0
   -0.7500    1.2990    0.0000 C   0  0  0  0  0  0  0  0  0  0  0  0
   -1.5000    0.0000    0.0000 C   0  0  0  0  0  0  0  0  0  0  0  0
   -0.7500   -1.2990    0.0000 N   0  0  0  0  0  0  0  0  0  0  0  0
  1  2  2  0
  2  3  1  0
  3  4  2  0
  4  5  1  0
  5  6  1  0
  6  7  1  0
  6  8  1  0
  6  9  1  0
  4 10  1  0
 10 11  2  0
 11 12  1  0
 12 13  2  0
 13 14  1  0
 14 15  1  0
 15 16  1  0
 16 17  1  0
 17 18  1  0
 18 19  1  0
 19  2  1  0
 13  3  1  0
 19 14  1  0
M  END
>  <assay_chembl_id>  (79) 
CHEMBL918966

>  <assay_description>  (79) 
Displacement of [3H]LSD from human recombinant 5HT2B expressed in HEK293E cells

>  <parent_molecule_chembl_id>  (79) 
CHEMBL219734

>  <canonical_smiles>  (79) 
O=C1c2c(OC(F)(F)F)cccc2C2CNCCN12

>  <standard_type>  (79) 
Ki

>  <standard_relation>  (79) 
=

>  <standard_value>  (79) 
550.0

>  <standard_units>  (79) 
nM

>  <target_pref_name>  (79) 
Serotonin 2b (5-HT2b) receptor

>  <target_chembl_id>  (79) 
CHEMBL1833

>  <target_organism>  (79) 
Homo sapiens

>  <pchembl_median>  (79) 
5.7

$$$$
CHEMBL376456
     RDKit          2D

 16 18  0  0  0  0  0  0  0  0999 V2000
    0.8999   -7.4725    0.0000 C   0  0  0  0  0  0  0  0  0  0  0  0
    1.0567   -5.9808    0.0000 O   0  0  0  0  0  0  0  0  0  0  0  0
   -0.1568   -5.0991    0.0000 C   0  0  0  0  0  0  0  0  0  0  0  0
   -1.5271   -5.7092    0.0000 C   0  0  0  0  0  0  0  0  0  0  0  0
   -2.7406   -4.8275    0.0000 C   0  0  0  0  0  0  0  0  0  0  0  0
   -2.5838   -3.3357    0.0000 C   0  0  0  0  0  0  0  0  0  0  0  0
   -1.2135   -2.7256    0.0000 C   0  0  0  0  0  0  0  0  0  0  0  0
   -0.0000   -3.6073    0.0000 C   0  0  0  0  0  0  0  0  0  0  0  0
    1.2135   -2.7256    0.0000 C   0  0  0  0  0  0  0  0  0  0  0  0
    2.6401   -3.1891    0.0000 O   0  0  0  0  0  0  0  0  0  0  0  0
    0.7500   -1.2990    0.0000 N   0  0  0  0  0  0  0  0  0  0  0  0
    1.5000    0.0000    0.0000 C   0  0  0  0  0  0  0  0  0  0  0  0
    0.7500    1.2990    0.0000 C   0  0  0  0  0  0  0  0  0  0  0  0
   -0.7500    1.2990    0.0000 N   0  0  0  0  0  0  0  0  0  0  0  0
   -1.5000    0.0000    0.0000 C   0  0  0  0  0  0  0  0  0  0  0  0
   -0.7500   -1.2990    0.0000 C   0  0  0  0  0  0  0  0  0  0  0  0
  1  2  1  0
  2  3  1  0
  3  4  2  0
  4  5  1  0
  5  6  2  0
  6  7  1  0
  7  8  2  0
  8  9  1  0
  9 10  2  0
  9 11  1  0
 11 12  1  0
 12 13  1  0
 13 14  1  0
 14 15  1  0
 15 16  1  0
  8  3  1  0
 16 11  1  0
 16  7  1  0
M  END
>  <assay_chembl_id>  (80) 
CHEMBL918966

>  <assay_description>  (80) 
Displacement of [3H]LSD from human recombinant 5HT2B expressed in HEK293E cells

>  <parent_molecule_chembl_id>  (80) 
CHEMBL376456

>  <canonical_smiles>  (80) 
COc1cccc2c1C(=O)N1CCNCC21

>  <standard_type>  (80) 
Ki

>  <standard_relation>  (80) 
=

>  <standard_value>  (80) 
192.0

>  <standard_units>  (80) 
nM

>  <target_pref_name>  (80) 
Serotonin 2b (5-HT2b) receptor

>  <target_chembl_id>  (80) 
CHEMBL1833

>  <target_organism>  (80) 
Homo sapiens

>  <pchembl_median>  (80) 
6.1

$$$$
CHEMBL220274
     RDKit          2D

 18 20  0  0  0  0  0  0  0  0999 V2000
   -2.6401   -3.1891    0.0000 O   0  0  0  0  0  0  0  0  0  0  0  0
   -1.2135   -2.7256    0.0000 C   0  0  0  0  0  0  0  0  0  0  0  0
   -0.0000   -3.6073    0.0000 C   0  0  0  0  0  0  0  0  0  0  0  0
    1.2135   -2.7256    0.0000 C   0  0  0  0  0  0  0  0  0  0  0  0
    2.5838   -3.3357    0.0000 C   0  0  0  0  0  0  0  0  0  0  0  0
    2.7406   -4.8275    0.0000 C   0  0  0  0  0  0  0  0  0  0  0  0
    1.5271   -5.7092    0.0000 C   0  0  0  0  0  0  0  0  0  0  0  0
    0.1568   -5.0991    0.0000 C   0  0  0  0  0  0  0  0  0  0  0  0
   -1.0567   -5.9808    0.0000 C   0  0  0  0  0  0  0  0  0  0  0  0
   -2.2703   -6.8624    0.0000 F   0  0  0  0  0  0  0  0  0  0  0  0
   -0.1751   -7.1943    0.0000 F   0  0  0  0  0  0  0  0  0  0  0  0
   -1.9384   -4.7672    0.0000 F   0  0  0  0  0  0  0  0  0  0  0  0
    0.7500   -1.2990    0.0000 C   0  0  0  0  0  0  0  0  0  0  0  0
    1.5000    0.0000    0.0000 C   0  0  0  0  0  0  0  0  0  0  0  0
    0.7500    1.2990    0.0000 N   0  0  0  0  0  0  0  0  0  0  0  0
   -0.7500    1.2990    0.0000 C   0  0  0  0  0  0  0  0  0  0  0  0
   -1.5000    0.0000    0.0000 C   0  0  0  0  0  0  0  0  0  0  0  0
   -0.7500   -1.2990    0.0000 N   0  0  0  0  0  0  0  0  0  0  0  0
  1  2  2  0
  2  3  1  0
  3  4  2  0
  4  5  1  0
  5  6  2  0
  6  7  1  0
  7  8  2  0
  8  9  1  0
  9 10  1  0
  9 11  1  0
  9 12  1  0
  4 13  1  0
 13 14  1  0
 14 15  1  0
 15 16  1  0
 16 17  1  0
 17 18  1  0
 18  2  1  0
  8  3  1  0
 18 13  1  0
M  END
>  <assay_chembl_id>  (81) 
CHEMBL918966

>  <assay_description>  (81) 
Displacement of [3H]LSD from human recombinant 5HT2B expressed in HEK293E cells

>  <parent_molecule_chembl_id>  (81) 
CHEMBL220274

>  <canonical_smiles>  (81) 
O=C1c2c(cccc2C(F)(F)F)C2CNCCN12

>  <standard_type>  (81) 
Ki

>  <standard_relation>  (81) 
=

>  <standard_value>  (81) 
249.0

>  <standard_units>  (81) 
nM

>  <target_pref_name>  (81) 
Serotonin 2b (5-HT2b) receptor

>  <target_chembl_id>  (81) 
CHEMBL1833

>  <target_organism>  (81) 
Homo sapiens

>  <pchembl_median>  (81) 
7.82

$$$$
CHEMBL375302
     RDKit          2D

 20 22  0  0  0  0  0  0  0  0999 V2000
    3.7500   -1.2990    0.0000 C   0  0  0  0  0  0  0  0  0  0  0  0
    3.0000    0.0000    0.0000 C   0  0  0  0  0  0  0  0  0  0  0  0
    1.5000    0.0000    0.0000 C   0  0  0  0  0  0  0  0  0  0  0  0
    0.7500   -1.2990    0.0000 N   0  0  0  0  0  0  0  0  0  0  0  0
   -0.7500   -1.2990    0.0000 C   0  0  0  0  0  0  0  0  0  0  0  0
   -1.5000    0.0000    0.0000 C   0  0  0  0  0  0  0  0  0  0  0  0
   -0.7500    1.2990    0.0000 N   0  0  0  0  0  0  0  0  0  0  0  0
   -1.2135    2.7256    0.0000 C   0  0  0  0  0  0  0  0  0  0  0  0
   -2.6401    3.1891    0.0000 O   0  0  0  0  0  0  0  0  0  0  0  0
   -0.0000    3.6073    0.0000 C   0  0  0  0  0  0  0  0  0  0  0  0
    1.2135    2.7256    0.0000 C   0  0  0  0  0  0  0  0  0  0  0  0
    2.5838    3.3357    0.0000 C   0  0  0  0  0  0  0  0  0  0  0  0
    2.7406    4.8275    0.0000 C   0  0  0  0  0  0  0  0  0  0  0  0
    1.5271    5.7092    0.0000 C   0  0  0  0  0  0  0  0  0  0  0  0
    0.1568    5.0991    0.0000 C   0  0  0  0  0  0  0  0  0  0  0  0
   -1.0567    5.9808    0.0000 C   0  0  0  0  0  0  0  0  0  0  0  0
   -2.2703    6.8624    0.0000 F   0  0  0  0  0  0  0  0  0  0  0  0
   -0.1751    7.1943    0.0000 F   0  0  0  0  0  0  0  0  0  0  0  0
   -1.9384    4.7672    0.0000 F   0  0  0  0  0  0  0  0  0  0  0  0
    0.7500    1.2990    0.0000 C   0  0  0  0  0  0  0  0  0  0  0  0
  1  2  1  0
  3  2  1  6
  3  4  1  0
  4  5  1  0
  5  6  1  0
  6  7  1  0
  7  8  1  0
  8  9  2  0
  8 10  1  0
 10 11  2  0
 11 12  1  0
 12 13  2  0
 13 14  1  0
 14 15  2  0
 15 16  1  0
 16 17  1  0
 16 18  1  0
 16 19  1  0
 20 11  1  6
 20  3  1  0
 20  7  1  0
 15 10  1  0
M  END
>  <assay_chembl_id>  (82) 
CHEMBL918966

>  <assay_description>  (82) 
Displacement of [3H]LSD from human recombinant 5HT2B expressed in HEK293E cells

>  <parent_molecule_chembl_id>  (82) 
CHEMBL375302

>  <canonical_smiles>  (82) 
CC[C@@H]1NCCN2C(=O)c3c(cccc3C(F)(F)F)[C@H]12

>  <standard_type>  (82) 
Ki

>  <standard_relation>  (82) 
=

>  <standard_value>  (82) 
235.0

>  <standard_units>  (82) 
nM

>  <target_pref_name>  (82) 
Serotonin 2b (5-HT2b) receptor

>  <target_chembl_id>  (82) 
CHEMBL1833

>  <target_organism>  (82) 
Homo sapiens

>  <pchembl_median>  (82) 
8.12

$$$$
CHEMBL219837
     RDKit          2D

 19 21  0  0  0  0  0  0  0  0999 V2000
    3.0000    0.0000    0.0000 C   0  0  0  0  0  0  0  0  0  0  0  0
    1.5000    0.0000    0.0000 C   0  0  0  0  0  0  0  0  0  0  0  0
    0.7500   -1.2990    0.0000 N   0  0  0  0  0  0  0  0  0  0  0  0
   -0.7500   -1.2990    0.0000 C   0  0  0  0  0  0  0  0  0  0  0  0
   -1.5000    0.0000    0.0000 C   0  0  0  0  0  0  0  0  0  0  0  0
   -0.7500    1.2990    0.0000 N   0  0  0  0  0  0  0  0  0  0  0  0
   -1.2135    2.7256    0.0000 C   0  0  0  0  0  0  0  0  0  0  0  0
   -2.6401    3.1891    0.0000 O   0  0  0  0  0  0  0  0  0  0  0  0
   -0.0000    3.6073    0.0000 C   0  0  0  0  0  0  0  0  0  0  0  0
    1.2135    2.7256    0.0000 C   0  0  0  0  0  0  0  0  0  0  0  0
    2.5838    3.3357    0.0000 C   0  0  0  0  0  0  0  0  0  0  0  0
    2.7406    4.8275    0.0000 C   0  0  0  0  0  0  0  0  0  0  0  0
    1.5271    5.7092    0.0000 C   0  0  0  0  0  0  0  0  0  0  0  0
    0.1568    5.0991    0.0000 C   0  0  0  0  0  0  0  0  0  0  0  0
   -1.0567    5.9808    0.0000 C   0  0  0  0  0  0  0  0  0  0  0  0
   -2.2703    6.8624    0.0000 F   0  0  0  0  0  0  0  0  0  0  0  0
   -0.1751    7.1943    0.0000 F   0  0  0  0  0  0  0  0  0  0  0  0
   -1.9384    4.7672    0.0000 F   0  0  0  0  0  0  0  0  0  0  0  0
    0.7500    1.2990    0.0000 C   0  0  0  0  0  0  0  0  0  0  0  0
  2  1  1  6
  2  3  1  0
  3  4  1  0
  4  5  1  0
  5  6  1  0
  6  7  1  0
  7  8  2  0
  7  9  1  0
  9 10  2  0
 10 11  1  0
 11 12  2  0
 12 13  1  0
 13 14  2  0
 14 15  1  0
 15 16  1  0
 15 17  1  0
 15 18  1  0
 19 10  1  6
 19  2  1  0
 19  6  1  0
 14  9  1  0
M  END
>  <assay_chembl_id>  (83) 
CHEMBL918966

>  <assay_description>  (83) 
Displacement of [3H]LSD from human recombinant 5HT2B expressed in HEK293E cells

>  <parent_molecule_chembl_id>  (83) 
CHEMBL219837

>  <canonical_smiles>  (83) 
C[C@@H]1NCCN2C(=O)c3c(cccc3C(F)(F)F)[C@H]12

>  <standard_type>  (83) 
Ki

>  <standard_relation>  (83) 
=

>  <standard_value>  (83) 
24.0

>  <standard_units>  (83) 
nM

>  <target_pref_name>  (83) 
Serotonin 2b (5-HT2b) receptor

>  <target_chembl_id>  (83) 
CHEMBL1833

>  <target_organism>  (83) 
Homo sapiens

>  <pchembl_median>  (83) 
8.06

$$$$
CHEMBL2113264
     RDKit          2D

 21 23  0  0  0  0  0  0  0  0999 V2000
    3.7500   -1.2990    0.0000 C   0  0  0  0  0  0  0  0  0  0  0  0
    3.0000    0.0000    0.0000 C   0  0  0  0  0  0  0  0  0  0  0  0
    3.7500    1.2990    0.0000 C   0  0  0  0  0  0  0  0  0  0  0  0
    1.5000    0.0000    0.0000 C   0  0  0  0  0  0  0  0  0  0  0  0
    0.7500   -1.2990    0.0000 C   0  0  0  0  0  0  0  0  0  0  0  0
   -0.7500   -1.2990    0.0000 N   0  0  0  0  0  0  0  0  0  0  0  0
   -1.5000    0.0000    0.0000 C   0  0  0  0  0  0  0  0  0  0  0  0
   -0.7500    1.2990    0.0000 C   0  0  0  0  0  0  0  0  0  0  0  0
   -1.2135    2.7256    0.0000 C   0  0  0  0  0  0  0  0  0  0  0  0
   -2.5838    3.3357    0.0000 C   0  0  0  0  0  0  0  0  0  0  0  0
   -2.7406    4.8275    0.0000 C   0  0  0  0  0  0  0  0  0  0  0  0
   -1.5271    5.7092    0.0000 C   0  0  0  0  0  0  0  0  0  0  0  0
   -0.1568    5.0991    0.0000 C   0  0  0  0  0  0  0  0  0  0  0  0
    1.0567    5.9808    0.0000 C   0  0  0  0  0  0  0  0  0  0  0  0
    2.2703    6.8624    0.0000 F   0  0  0  0  0  0  0  0  0  0  0  0
    0.1751    7.1943    0.0000 F   0  0  0  0  0  0  0  0  0  0  0  0
    1.9384    4.7672    0.0000 F   0  0  0  0  0  0  0  0  0  0  0  0
   -0.0000    3.6073    0.0000 C   0  0  0  0  0  0  0  0  0  0  0  0
    1.2135    2.7256    0.0000 C   0  0  0  0  0  0  0  0  0  0  0  0
    2.6401    3.1891    0.0000 O   0  0  0  0  0  0  0  0  0  0  0  0
    0.7500    1.2990    0.0000 N   0  0  0  0  0  0  0  0  0  0  0  0
  1  2  1  0
  2  3  1  0
  4  2  1  1
  4  5  1  0
  5  6  1  0
  6  7  1  0
  8  7  1  1
  8  9  1  0
  9 10  2  0
 10 11  1  0
 11 12  2  0
 12 13  1  0
 13 14  1  0
 14 15  1  0
 14 16  1  0
 14 17  1  0
 13 18  2  0
 18 19  1  0
 19 20  2  0
 19 21  1  0
 21  4  1  0
 21  8  1  0
 18  9  1  0
M  END
>  <assay_chembl_id>  (84) 
CHEMBL918966

>  <assay_description>  (84) 
Displacement of [3H]LSD from human recombinant 5HT2B expressed in HEK293E cells

>  <parent_molecule_chembl_id>  (84) 
CHEMBL2113264

>  <canonical_smiles>  (84) 
CC(C)[C@H]1CNC[C@H]2c3cccc(C(F)(F)F)c3C(=O)N12

>  <standard_type>  (84) 
Ki

>  <standard_relation>  (84) 
=

>  <standard_value>  (84) 
7.0

>  <standard_units>  (84) 
nM

>  <target_pref_name>  (84) 
Serotonin 2b (5-HT2b) receptor

>  <target_chembl_id>  (84) 
CHEMBL1833

>  <target_organism>  (84) 
Homo sapiens

>  <pchembl_median>  (84) 
6.94

$$$$
CHEMBL223272
     RDKit          2D

 19 21  0  0  0  0  0  0  0  0999 V2000
    3.0000    0.0000    0.0000 C   0  0  0  0  0  0  0  0  0  0  0  0
    1.5000    0.0000    0.0000 C   0  0  0  0  0  0  0  0  0  0  0  0
    0.7500   -1.2990    0.0000 C   0  0  0  0  0  0  0  0  0  0  0  0
   -0.7500   -1.2990    0.0000 N   0  0  0  0  0  0  0  0  0  0  0  0
   -1.5000    0.0000    0.0000 C   0  0  0  0  0  0  0  0  0  0  0  0
   -0.7500    1.2990    0.0000 C   0  0  0  0  0  0  0  0  0  0  0  0
   -1.2135    2.7256    0.0000 C   0  0  0  0  0  0  0  0  0  0  0  0
   -2.5838    3.3357    0.0000 C   0  0  0  0  0  0  0  0  0  0  0  0
   -2.7406    4.8275    0.0000 C   0  0  0  0  0  0  0  0  0  0  0  0
   -1.5271    5.7092    0.0000 C   0  0  0  0  0  0  0  0  0  0  0  0
   -0.1568    5.0991    0.0000 C   0  0  0  0  0  0  0  0  0  0  0  0
    1.0567    5.9808    0.0000 C   0  0  0  0  0  0  0  0  0  0  0  0
    2.2703    6.8624    0.0000 F   0  0  0  0  0  0  0  0  0  0  0  0
    0.1751    7.1943    0.0000 F   0  0  0  0  0  0  0  0  0  0  0  0
    1.9384    4.7672    0.0000 F   0  0  0  0  0  0  0  0  0  0  0  0
   -0.0000    3.6073    0.0000 C   0  0  0  0  0  0  0  0  0  0  0  0
    1.2135    2.7256    0.0000 C   0  0  0  0  0  0  0  0  0  0  0  0
    2.6401    3.1891    0.0000 O   0  0  0  0  0  0  0  0  0  0  0  0
    0.7500    1.2990    0.0000 N   0  0  0  0  0  0  0  0  0  0  0  0
  2  1  1  6
  2  3  1  0
  3  4  1  0
  4  5  1  0
  6  5  1  1
  6  7  1  0
  7  8  2  0
  8  9  1  0
  9 10  2  0
 10 11  1  0
 11 12  1  0
 12 13  1  0
 12 14  1  0
 12 15  1  0
 11 16  2  0
 16 17  1  0
 17 18  2  0
 17 19  1  0
 19  2  1  0
 19  6  1  0
 16  7  1  0
M  END
>  <assay_chembl_id>  (85) 
CHEMBL918966

>  <assay_description>  (85) 
Displacement of [3H]LSD from human recombinant 5HT2B expressed in HEK293E cells

>  <parent_molecule_chembl_id>  (85) 
CHEMBL223272

>  <canonical_smiles>  (85) 
C[C@@H]1CNC[C@H]2c3cccc(C(F)(F)F)c3C(=O)N12

>  <standard_type>  (85) 
Ki

>  <standard_relation>  (85) 
=

>  <standard_value>  (85) 
29.0

>  <standard_units>  (85) 
nM

>  <target_pref_name>  (85) 
Serotonin 2b (5-HT2b) receptor

>  <target_chembl_id>  (85) 
CHEMBL1833

>  <target_organism>  (85) 
Homo sapiens

>  <pchembl_median>  (85) 
6.21

$$$$
CHEMBL376676
     RDKit          2D

 19 21  0  0  0  0  0  0  0  0999 V2000
    3.0000    0.0000    0.0000 C   0  0  0  0  0  0  0  0  0  0  0  0
    1.5000    0.0000    0.0000 C   0  0  0  0  0  0  0  0  0  0  0  0
    0.7500   -1.2990    0.0000 C   0  0  0  0  0  0  0  0  0  0  0  0
   -0.7500   -1.2990    0.0000 N   0  0  0  0  0  0  0  0  0  0  0  0
   -1.5000    0.0000    0.0000 C   0  0  0  0  0  0  0  0  0  0  0  0
   -0.7500    1.2990    0.0000 C   0  0  0  0  0  0  0  0  0  0  0  0
   -1.2135    2.7256    0.0000 C   0  0  0  0  0  0  0  0  0  0  0  0
   -2.5838    3.3357    0.0000 C   0  0  0  0  0  0  0  0  0  0  0  0
   -2.7406    4.8275    0.0000 C   0  0  0  0  0  0  0  0  0  0  0  0
   -1.5271    5.7092    0.0000 C   0  0  0  0  0  0  0  0  0  0  0  0
   -0.1568    5.0991    0.0000 C   0  0  0  0  0  0  0  0  0  0  0  0
    1.0567    5.9808    0.0000 C   0  0  0  0  0  0  0  0  0  0  0  0
    2.2703    6.8624    0.0000 F   0  0  0  0  0  0  0  0  0  0  0  0
    0.1751    7.1943    0.0000 F   0  0  0  0  0  0  0  0  0  0  0  0
    1.9384    4.7672    0.0000 F   0  0  0  0  0  0  0  0  0  0  0  0
   -0.0000    3.6073    0.0000 C   0  0  0  0  0  0  0  0  0  0  0  0
    1.2135    2.7256    0.0000 C   0  0  0  0  0  0  0  0  0  0  0  0
    2.6401    3.1891    0.0000 O   0  0  0  0  0  0  0  0  0  0  0  0
    0.7500    1.2990    0.0000 N   0  0  0  0  0  0  0  0  0  0  0  0
  2  1  1  1
  2  3  1  0
  3  4  1  0
  4  5  1  0
  6  5  1  1
  6  7  1  0
  7  8  2  0
  8  9  1  0
  9 10  2  0
 10 11  1  0
 11 12  1  0
 12 13  1  0
 12 14  1  0
 12 15  1  0
 11 16  2  0
 16 17  1  0
 17 18  2  0
 17 19  1  0
 19  2  1  0
 19  6  1  0
 16  7  1  0
M  END
>  <assay_chembl_id>  (86) 
CHEMBL918966

>  <assay_description>  (86) 
Displacement of [3H]LSD from human recombinant 5HT2B expressed in HEK293E cells

>  <parent_molecule_chembl_id>  (86) 
CHEMBL376676

>  <canonical_smiles>  (86) 
C[C@H]1CNC[C@H]2c3cccc(C(F)(F)F)c3C(=O)N12

>  <standard_type>  (86) 
Ki

>  <standard_relation>  (86) 
=

>  <standard_value>  (86) 
116.0

>  <standard_units>  (86) 
nM

>  <target_pref_name>  (86) 
Serotonin 2b (5-HT2b) receptor

>  <target_chembl_id>  (86) 
CHEMBL1833

>  <target_organism>  (86) 
Homo sapiens

>  <pchembl_median>  (86) 
8.22

$$$$
CHEMBL223271
     RDKit          2D

 19 21  0  0  0  0  0  0  0  0999 V2000
    3.0000    0.0000    0.0000 C   0  0  0  0  0  0  0  0  0  0  0  0
    1.5000    0.0000    0.0000 C   0  0  0  0  0  0  0  0  0  0  0  0
    0.7500   -1.2990    0.0000 C   0  0  0  0  0  0  0  0  0  0  0  0
   -0.7500   -1.2990    0.0000 N   0  0  0  0  0  0  0  0  0  0  0  0
   -1.7537   -2.4138    0.0000 C   0  0  0  0  0  0  0  0  0  0  0  0
   -1.4418   -3.8810    0.0000 O   0  0  0  0  0  0  0  0  0  0  0  0
   -3.1240   -1.8037    0.0000 C   0  0  0  0  0  0  0  0  0  0  0  0
   -2.9672   -0.3119    0.0000 C   0  0  0  0  0  0  0  0  0  0  0  0
   -4.1807    0.5698    0.0000 C   0  0  0  0  0  0  0  0  0  0  0  0
   -5.5511   -0.0403    0.0000 C   0  0  0  0  0  0  0  0  0  0  0  0
   -5.7079   -1.5321    0.0000 C   0  0  0  0  0  0  0  0  0  0  0  0
   -4.4943   -2.4138    0.0000 C   0  0  0  0  0  0  0  0  0  0  0  0
   -4.6511   -3.9055    0.0000 C   0  0  0  0  0  0  0  0  0  0  0  0
   -4.8079   -5.3973    0.0000 F   0  0  0  0  0  0  0  0  0  0  0  0
   -6.1429   -3.7487    0.0000 F   0  0  0  0  0  0  0  0  0  0  0  0
   -3.1593   -4.0623    0.0000 F   0  0  0  0  0  0  0  0  0  0  0  0
   -1.5000    0.0000    0.0000 C   0  0  0  0  0  0  0  0  0  0  0  0
   -0.7500    1.2990    0.0000 C   0  0  0  0  0  0  0  0  0  0  0  0
    0.7500    1.2990    0.0000 N   0  0  0  0  0  0  0  0  0  0  0  0
  2  1  1  6
  2  3  1  0
  3  4  1  0
  4  5  1  0
  5  6  2  0
  5  7  1  0
  7  8  2  0
  8  9  1  0
  9 10  2  0
 10 11  1  0
 11 12  2  0
 12 13  1  0
 13 14  1  0
 13 15  1  0
 13 16  1  0
  8 17  1  0
 17 18  1  6
 18 19  1  0
 19  2  1  0
 17  4  1  0
 12  7  1  0
M  END
>  <assay_chembl_id>  (87) 
CHEMBL918966

>  <assay_description>  (87) 
Displacement of [3H]LSD from human recombinant 5HT2B expressed in HEK293E cells

>  <parent_molecule_chembl_id>  (87) 
CHEMBL223271

>  <canonical_smiles>  (87) 
C[C@@H]1CN2C(=O)c3c(cccc3C(F)(F)F)[C@@H]2CN1

>  <standard_type>  (87) 
Ki

>  <standard_relation>  (87) 
=

>  <standard_value>  (87) 
2350.0

>  <standard_units>  (87) 
nM

>  <target_pref_name>  (87) 
Serotonin 2b (5-HT2b) receptor

>  <target_chembl_id>  (87) 
CHEMBL1833

>  <target_organism>  (87) 
Homo sapiens

>  <pchembl_median>  (87) 
6.18

$$$$
CHEMBL373402
     RDKit          2D

 19 21  0  0  0  0  0  0  0  0999 V2000
    3.0000    0.0000    0.0000 C   0  0  0  0  0  0  0  0  0  0  0  0
    1.5000    0.0000    0.0000 C   0  0  0  0  0  0  0  0  0  0  0  0
    0.7500   -1.2990    0.0000 C   0  0  0  0  0  0  0  0  0  0  0  0
   -0.7500   -1.2990    0.0000 N   0  0  0  0  0  0  0  0  0  0  0  0
   -1.7537   -2.4138    0.0000 C   0  0  0  0  0  0  0  0  0  0  0  0
   -1.4418   -3.8810    0.0000 O   0  0  0  0  0  0  0  0  0  0  0  0
   -3.1240   -1.8037    0.0000 C   0  0  0  0  0  0  0  0  0  0  0  0
   -2.9672   -0.3119    0.0000 C   0  0  0  0  0  0  0  0  0  0  0  0
   -4.1807    0.5698    0.0000 C   0  0  0  0  0  0  0  0  0  0  0  0
   -5.5511   -0.0403    0.0000 C   0  0  0  0  0  0  0  0  0  0  0  0
   -5.7079   -1.5321    0.0000 C   0  0  0  0  0  0  0  0  0  0  0  0
   -4.4943   -2.4138    0.0000 C   0  0  0  0  0  0  0  0  0  0  0  0
   -4.6511   -3.9055    0.0000 C   0  0  0  0  0  0  0  0  0  0  0  0
   -4.8079   -5.3973    0.0000 F   0  0  0  0  0  0  0  0  0  0  0  0
   -6.1429   -3.7487    0.0000 F   0  0  0  0  0  0  0  0  0  0  0  0
   -3.1593   -4.0623    0.0000 F   0  0  0  0  0  0  0  0  0  0  0  0
   -1.5000    0.0000    0.0000 C   0  0  0  0  0  0  0  0  0  0  0  0
   -0.7500    1.2990    0.0000 C   0  0  0  0  0  0  0  0  0  0  0  0
    0.7500    1.2990    0.0000 N   0  0  0  0  0  0  0  0  0  0  0  0
  2  1  1  1
  2  3  1  0
  3  4  1  0
  4  5  1  0
  5  6  2  0
  5  7  1  0
  7  8  2  0
  8  9  1  0
  9 10  2  0
 10 11  1  0
 11 12  2  0
 12 13  1  0
 13 14  1  0
 13 15  1  0
 13 16  1  0
  8 17  1  0
 17 18  1  6
 18 19  1  0
 19  2  1  0
 17  4  1  0
 12  7  1  0
M  END
>  <assay_chembl_id>  (88) 
CHEMBL918966

>  <assay_description>  (88) 
Displacement of [3H]LSD from human recombinant 5HT2B expressed in HEK293E cells

>  <parent_molecule_chembl_id>  (88) 
CHEMBL373402

>  <canonical_smiles>  (88) 
C[C@H]1CN2C(=O)c3c(cccc3C(F)(F)F)[C@@H]2CN1

>  <standard_type>  (88) 
Ki

>  <standard_relation>  (88) 
=

>  <standard_value>  (88) 
3010.0

>  <standard_units>  (88) 
nM

>  <target_pref_name>  (88) 
Serotonin 2b (5-HT2b) receptor

>  <target_chembl_id>  (88) 
CHEMBL1833

>  <target_organism>  (88) 
Homo sapiens

>  <pchembl_median>  (88) 
7.75

$$$$
CHEMBL220789
     RDKit          2D

 20 22  0  0  0  0  0  0  0  0999 V2000
    2.6491    0.9642    0.0000 C   0  0  0  0  0  0  0  0  0  0  0  0
    1.5000    0.0000    0.0000 C   0  0  0  0  0  0  0  0  0  0  0  0
    2.6491   -0.9642    0.0000 C   0  0  0  0  0  0  0  0  0  0  0  0
    0.7500   -1.2990    0.0000 C   0  0  0  0  0  0  0  0  0  0  0  0
   -0.7500   -1.2990    0.0000 N   0  0  0  0  0  0  0  0  0  0  0  0
   -1.7537   -2.4138    0.0000 C   0  0  0  0  0  0  0  0  0  0  0  0
   -1.4418   -3.8810    0.0000 O   0  0  0  0  0  0  0  0  0  0  0  0
   -3.1240   -1.8037    0.0000 C   0  0  0  0  0  0  0  0  0  0  0  0
   -2.9672   -0.3119    0.0000 C   0  0  0  0  0  0  0  0  0  0  0  0
   -4.1807    0.5698    0.0000 C   0  0  0  0  0  0  0  0  0  0  0  0
   -5.5511   -0.0403    0.0000 C   0  0  0  0  0  0  0  0  0  0  0  0
   -5.7079   -1.5321    0.0000 C   0  0  0  0  0  0  0  0  0  0  0  0
   -4.4943   -2.4138    0.0000 C   0  0  0  0  0  0  0  0  0  0  0  0
   -4.6511   -3.9055    0.0000 C   0  0  0  0  0  0  0  0  0  0  0  0
   -4.8079   -5.3973    0.0000 F   0  0  0  0  0  0  0  0  0  0  0  0
   -6.1429   -3.7487    0.0000 F   0  0  0  0  0  0  0  0  0  0  0  0
   -3.1593   -4.0623    0.0000 F   0  0  0  0  0  0  0  0  0  0  0  0
   -1.5000    0.0000    0.0000 C   0  0  0  0  0  0  0  0  0  0  0  0
   -0.7500    1.2990    0.0000 C   0  0  0  0  0  0  0  0  0  0  0  0
    0.7500    1.2990    0.0000 N   0  0  0  0  0  0  0  0  0  0  0  0
  1  2  1  0
  2  3  1  0
  2  4  1  0
  4  5  1  0
  5  6  1  0
  6  7  2  0
  6  8  1  0
  8  9  2  0
  9 10  1  0
 10 11  2  0
 11 12  1  0
 12 13  2  0
 13 14  1  0
 14 15  1  0
 14 16  1  0
 14 17  1  0
  9 18  1  0
 18 19  1  6
 19 20  1  0
 20  2  1  0
 18  5  1  0
 13  8  1  0
M  END
>  <assay_chembl_id>  (89) 
CHEMBL918966

>  <assay_description>  (89) 
Displacement of [3H]LSD from human recombinant 5HT2B expressed in HEK293E cells

>  <parent_molecule_chembl_id>  (89) 
CHEMBL220789

>  <canonical_smiles>  (89) 
CC1(C)CN2C(=O)c3c(cccc3C(F)(F)F)[C@@H]2CN1

>  <standard_type>  (89) 
Ki

>  <standard_relation>  (89) 
=

>  <standard_value>  (89) 
3190.0

>  <standard_units>  (89) 
nM

>  <target_pref_name>  (89) 
Serotonin 2b (5-HT2b) receptor

>  <target_chembl_id>  (89) 
CHEMBL1833

>  <target_organism>  (89) 
Homo sapiens

>  <pchembl_median>  (89) 
6.68

$$$$
CHEMBL375642
     RDKit          2D

 19 21  0  0  0  0  0  0  0  0999 V2000
    3.0000    0.0000    0.0000 C   0  0  0  0  0  0  0  0  0  0  0  0
    1.5000    0.0000    0.0000 N   0  0  0  0  0  0  0  0  0  0  0  0
    0.7500   -1.2990    0.0000 C   0  0  0  0  0  0  0  0  0  0  0  0
   -0.7500   -1.2990    0.0000 C   0  0  0  0  0  0  0  0  0  0  0  0
   -1.5000    0.0000    0.0000 N   0  0  0  0  0  0  0  0  0  0  0  0
   -2.9672    0.3119    0.0000 C   0  0  0  0  0  0  0  0  0  0  0  0
   -4.0819   -0.6918    0.0000 O   0  0  0  0  0  0  0  0  0  0  0  0
   -3.1240    1.8037    0.0000 C   0  0  0  0  0  0  0  0  0  0  0  0
   -1.7537    2.4138    0.0000 C   0  0  0  0  0  0  0  0  0  0  0  0
   -1.5969    3.9055    0.0000 C   0  0  0  0  0  0  0  0  0  0  0  0
   -2.8104    4.7872    0.0000 C   0  0  0  0  0  0  0  0  0  0  0  0
   -4.1807    4.1771    0.0000 C   0  0  0  0  0  0  0  0  0  0  0  0
   -4.3375    2.6853    0.0000 C   0  0  0  0  0  0  0  0  0  0  0  0
   -5.7079    2.0752    0.0000 C   0  0  0  0  0  0  0  0  0  0  0  0
   -7.0782    1.4651    0.0000 F   0  0  0  0  0  0  0  0  0  0  0  0
   -6.3180    3.4455    0.0000 F   0  0  0  0  0  0  0  0  0  0  0  0
   -5.0978    0.7049    0.0000 F   0  0  0  0  0  0  0  0  0  0  0  0
   -0.7500    1.2990    0.0000 C   0  0  0  0  0  0  0  0  0  0  0  0
    0.7500    1.2990    0.0000 C   0  0  0  0  0  0  0  0  0  0  0  0
  1  2  1  0
  2  3  1  0
  3  4  1  0
  4  5  1  0
  5  6  1  0
  6  7  2  0
  6  8  1  0
  8  9  2  0
  9 10  1  0
 10 11  2  0
 11 12  1  0
 12 13  2  0
 13 14  1  0
 14 15  1  0
 14 16  1  0
 14 17  1  0
  9 18  1  0
 18 19  1  6
 19  2  1  0
 18  5  1  0
 13  8  1  0
M  END
>  <assay_chembl_id>  (90) 
CHEMBL918966

>  <assay_description>  (90) 
Displacement of [3H]LSD from human recombinant 5HT2B expressed in HEK293E cells

>  <parent_molecule_chembl_id>  (90) 
CHEMBL375642

>  <canonical_smiles>  (90) 
CN1CCN2C(=O)c3c(cccc3C(F)(F)F)[C@@H]2C1

>  <standard_type>  (90) 
Ki

>  <standard_relation>  (90) 
=

>  <standard_value>  (90) 
1580.0

>  <standard_units>  (90) 
nM

>  <target_pref_name>  (90) 
Serotonin 2b (5-HT2b) receptor

>  <target_chembl_id>  (90) 
CHEMBL1833

>  <target_organism>  (90) 
Homo sapiens

>  <pchembl_median>  (90) 
7.92

$$$$
CHEMBL223440
     RDKit          2D

 17 19  0  0  0  0  0  0  0  0999 V2000
    4.2677   -6.9294    0.0000 C   0  0  0  0  0  0  0  0  0  0  0  0
    4.1110   -5.4376    0.0000 C   0  0  0  0  0  0  0  0  0  0  0  0
    2.7406   -4.8275    0.0000 C   0  0  0  0  0  0  0  0  0  0  0  0
    1.5271   -5.7092    0.0000 C   0  0  0  0  0  0  0  0  0  0  0  0
    0.1568   -5.0991    0.0000 C   0  0  0  0  0  0  0  0  0  0  0  0
   -1.0567   -5.9808    0.0000 Cl  0  0  0  0  0  0  0  0  0  0  0  0
    0.0000   -3.6073    0.0000 C   0  0  0  0  0  0  0  0  0  0  0  0
    1.2135   -2.7256    0.0000 C   0  0  0  0  0  0  0  0  0  0  0  0
    2.5838   -3.3357    0.0000 C   0  0  0  0  0  0  0  0  0  0  0  0
    0.7500   -1.2990    0.0000 C   0  0  0  0  0  0  0  0  0  0  0  0
    1.5000    0.0000    0.0000 C   0  0  0  0  0  0  0  0  0  0  0  0
    0.7500    1.2990    0.0000 N   0  0  0  0  0  0  0  0  0  0  0  0
   -0.7500    1.2990    0.0000 C   0  0  0  0  0  0  0  0  0  0  0  0
   -1.5000    0.0000    0.0000 C   0  0  0  0  0  0  0  0  0  0  0  0
   -0.7500   -1.2990    0.0000 N   0  0  0  0  0  0  0  0  0  0  0  0
   -1.2135   -2.7256    0.0000 C   0  0  0  0  0  0  0  0  0  0  0  0
   -2.6401   -3.1891    0.0000 O   0  0  0  0  0  0  0  0  0  0  0  0
  1  2  1  0
  2  3  1  0
  3  4  2  0
  4  5  1  0
  5  6  1  0
  5  7  2  0
  7  8  1  0
  8  9  2  0
  8 10  1  0
 10 11  1  1
 11 12  1  0
 12 13  1  0
 13 14  1  0
 14 15  1  0
 15 16  1  0
 16 17  2  0
  9  3  1  0
 15 10  1  0
 16  7  1  0
M  END
>  <assay_chembl_id>  (91) 
CHEMBL918966

>  <assay_description>  (91) 
Displacement of [3H]LSD from human recombinant 5HT2B expressed in HEK293E cells

>  <parent_molecule_chembl_id>  (91) 
CHEMBL223440

>  <canonical_smiles>  (91) 
CCc1cc(Cl)c2c(c1)[C@@H]1CNCCN1C2=O

>  <standard_type>  (91) 
Ki

>  <standard_relation>  (91) 
=

>  <standard_value>  (91) 
248.0

>  <standard_units>  (91) 
nM

>  <target_pref_name>  (91) 
Serotonin 2b (5-HT2b) receptor

>  <target_chembl_id>  (91) 
CHEMBL1833

>  <target_organism>  (91) 
Homo sapiens

>  <pchembl_median>  (91) 
6.34

$$$$
CHEMBL220157
     RDKit          2D

 17 19  0  0  0  0  0  0  0  0999 V2000
    4.2677   -6.9294    0.0000 C   0  0  0  0  0  0  0  0  0  0  0  0
    4.1110   -5.4376    0.0000 O   0  0  0  0  0  0  0  0  0  0  0  0
    2.7406   -4.8275    0.0000 C   0  0  0  0  0  0  0  0  0  0  0  0
    1.5271   -5.7092    0.0000 C   0  0  0  0  0  0  0  0  0  0  0  0
    0.1568   -5.0991    0.0000 C   0  0  0  0  0  0  0  0  0  0  0  0
   -1.0567   -5.9808    0.0000 Cl  0  0  0  0  0  0  0  0  0  0  0  0
    0.0000   -3.6073    0.0000 C   0  0  0  0  0  0  0  0  0  0  0  0
    1.2135   -2.7256    0.0000 C   0  0  0  0  0  0  0  0  0  0  0  0
    2.5838   -3.3357    0.0000 C   0  0  0  0  0  0  0  0  0  0  0  0
    0.7500   -1.2990    0.0000 C   0  0  0  0  0  0  0  0  0  0  0  0
    1.5000    0.0000    0.0000 C   0  0  0  0  0  0  0  0  0  0  0  0
    0.7500    1.2990    0.0000 N   0  0  0  0  0  0  0  0  0  0  0  0
   -0.7500    1.2990    0.0000 C   0  0  0  0  0  0  0  0  0  0  0  0
   -1.5000    0.0000    0.0000 C   0  0  0  0  0  0  0  0  0  0  0  0
   -0.7500   -1.2990    0.0000 N   0  0  0  0  0  0  0  0  0  0  0  0
   -1.2135   -2.7256    0.0000 C   0  0  0  0  0  0  0  0  0  0  0  0
   -2.6401   -3.1891    0.0000 O   0  0  0  0  0  0  0  0  0  0  0  0
  1  2  1  0
  2  3  1  0
  3  4  2  0
  4  5  1  0
  5  6  1  0
  5  7  2  0
  7  8  1  0
  8  9  2  0
  8 10  1  0
 10 11  1  1
 11 12  1  0
 12 13  1  0
 13 14  1  0
 14 15  1  0
 15 16  1  0
 16 17  2  0
  9  3  1  0
 15 10  1  0
 16  7  1  0
M  END
>  <assay_chembl_id>  (92) 
CHEMBL918966

>  <assay_description>  (92) 
Displacement of [3H]LSD from human recombinant 5HT2B expressed in HEK293E cells

>  <parent_molecule_chembl_id>  (92) 
CHEMBL220157

>  <canonical_smiles>  (92) 
COc1cc(Cl)c2c(c1)[C@@H]1CNCCN1C2=O

>  <standard_type>  (92) 
Ki

>  <standard_relation>  (92) 
=

>  <standard_value>  (92) 
890.0

>  <standard_units>  (92) 
nM

>  <target_pref_name>  (92) 
Serotonin 2b (5-HT2b) receptor

>  <target_chembl_id>  (92) 
CHEMBL1833

>  <target_organism>  (92) 
Homo sapiens

>  <pchembl_median>  (92) 
6.86

$$$$
CHEMBL374436
     RDKit          2D

 18 20  0  0  0  0  0  0  0  0999 V2000
   -5.3245   -4.5559    0.0000 C   0  0  0  0  0  0  0  0  0  0  0  0
   -4.1110   -5.4376    0.0000 C   0  0  0  0  0  0  0  0  0  0  0  0
   -2.7406   -4.8275    0.0000 C   0  0  0  0  0  0  0  0  0  0  0  0
   -2.5838   -3.3357    0.0000 C   0  0  0  0  0  0  0  0  0  0  0  0
   -1.2135   -2.7256    0.0000 C   0  0  0  0  0  0  0  0  0  0  0  0
   -0.0000   -3.6073    0.0000 C   0  0  0  0  0  0  0  0  0  0  0  0
   -0.1568   -5.0991    0.0000 C   0  0  0  0  0  0  0  0  0  0  0  0
   -1.5271   -5.7092    0.0000 C   0  0  0  0  0  0  0  0  0  0  0  0
   -1.6839   -7.2010    0.0000 O   0  0  0  0  0  0  0  0  0  0  0  0
   -0.4704   -8.0826    0.0000 C   0  0  0  0  0  0  0  0  0  0  0  0
    1.2135   -2.7256    0.0000 C   0  0  0  0  0  0  0  0  0  0  0  0
    2.6401   -3.1891    0.0000 O   0  0  0  0  0  0  0  0  0  0  0  0
    0.7500   -1.2990    0.0000 N   0  0  0  0  0  0  0  0  0  0  0  0
    1.5000    0.0000    0.0000 C   0  0  0  0  0  0  0  0  0  0  0  0
    0.7500    1.2990    0.0000 C   0  0  0  0  0  0  0  0  0  0  0  0
   -0.7500    1.2990    0.0000 N   0  0  0  0  0  0  0  0  0  0  0  0
   -1.5000    0.0000    0.0000 C   0  0  0  0  0  0  0  0  0  0  0  0
   -0.7500   -1.2990    0.0000 C   0  0  0  0  0  0  0  0  0  0  0  0
  1  2  1  0
  2  3  1  0
  3  4  2  0
  4  5  1  0
  5  6  2  0
  6  7  1  0
  7  8  2  0
  8  9  1  0
  9 10  1  0
  6 11  1  0
 11 12  2  0
 11 13  1  0
 13 14  1  0
 14 15  1  0
 15 16  1  0
 16 17  1  0
 18 17  1  6
  8  3  1  0
 18 13  1  0
 18  5  1  0
M  END
>  <assay_chembl_id>  (93) 
CHEMBL918966

>  <assay_description>  (93) 
Displacement of [3H]LSD from human recombinant 5HT2B expressed in HEK293E cells

>  <parent_molecule_chembl_id>  (93) 
CHEMBL374436

>  <canonical_smiles>  (93) 
CCc1cc2c(cc1OC)C(=O)N1CCNC[C@@H]21

>  <standard_type>  (93) 
Ki

>  <standard_relation>  (93) 
=

>  <standard_value>  (93) 
75.0

>  <standard_units>  (93) 
nM

>  <target_pref_name>  (93) 
Serotonin 2b (5-HT2b) receptor

>  <target_chembl_id>  (93) 
CHEMBL1833

>  <target_organism>  (93) 
Homo sapiens

>  <pchembl_median>  (93) 
6.42

$$$$
CHEMBL222466
     RDKit          2D

 17 19  0  0  0  0  0  0  0  0999 V2000
    0.4704   -8.0826    0.0000 C   0  0  0  0  0  0  0  0  0  0  0  0
    1.6839   -7.2010    0.0000 O   0  0  0  0  0  0  0  0  0  0  0  0
    1.5271   -5.7092    0.0000 C   0  0  0  0  0  0  0  0  0  0  0  0
    0.1568   -5.0991    0.0000 C   0  0  0  0  0  0  0  0  0  0  0  0
    0.0000   -3.6073    0.0000 C   0  0  0  0  0  0  0  0  0  0  0  0
    1.2135   -2.7256    0.0000 C   0  0  0  0  0  0  0  0  0  0  0  0
    2.5838   -3.3357    0.0000 C   0  0  0  0  0  0  0  0  0  0  0  0
    2.7406   -4.8275    0.0000 C   0  0  0  0  0  0  0  0  0  0  0  0
    4.1110   -5.4376    0.0000 Cl  0  0  0  0  0  0  0  0  0  0  0  0
    0.7500   -1.2990    0.0000 C   0  0  0  0  0  0  0  0  0  0  0  0
    1.5000    0.0000    0.0000 C   0  0  0  0  0  0  0  0  0  0  0  0
    0.7500    1.2990    0.0000 N   0  0  0  0  0  0  0  0  0  0  0  0
   -0.7500    1.2990    0.0000 C   0  0  0  0  0  0  0  0  0  0  0  0
   -1.5000    0.0000    0.0000 C   0  0  0  0  0  0  0  0  0  0  0  0
   -0.7500   -1.2990    0.0000 N   0  0  0  0  0  0  0  0  0  0  0  0
   -1.2135   -2.7256    0.0000 C   0  0  0  0  0  0  0  0  0  0  0  0
   -2.6401   -3.1891    0.0000 O   0  0  0  0  0  0  0  0  0  0  0  0
  1  2  1  0
  2  3  1  0
  3  4  2  0
  4  5  1  0
  5  6  2  0
  6  7  1  0
  7  8  2  0
  8  9  1  0
  6 10  1  0
 10 11  1  1
 11 12  1  0
 12 13  1  0
 13 14  1  0
 14 15  1  0
 15 16  1  0
 16 17  2  0
  8  3  1  0
 15 10  1  0
 16  5  1  0
M  END
>  <assay_chembl_id>  (94) 
CHEMBL918966

>  <assay_description>  (94) 
Displacement of [3H]LSD from human recombinant 5HT2B expressed in HEK293E cells

>  <parent_molecule_chembl_id>  (94) 
CHEMBL222466

>  <canonical_smiles>  (94) 
COc1cc2c(cc1Cl)[C@@H]1CNCCN1C2=O

>  <standard_type>  (94) 
Ki

>  <standard_relation>  (94) 
=

>  <standard_value>  (94) 
471.0

>  <standard_units>  (94) 
nM

>  <target_pref_name>  (94) 
Serotonin 2b (5-HT2b) receptor

>  <target_chembl_id>  (94) 
CHEMBL1833

>  <target_organism>  (94) 
Homo sapiens

>  <pchembl_median>  (94) 
6.87

$$$$
CHEMBL223468
     RDKit          2D

 18 20  0  0  0  0  0  0  0  0999 V2000
   -3.0542   -7.8111    0.0000 C   0  0  0  0  0  0  0  0  0  0  0  0
   -1.6839   -7.2010    0.0000 C   0  0  0  0  0  0  0  0  0  0  0  0
   -1.5271   -5.7092    0.0000 C   0  0  0  0  0  0  0  0  0  0  0  0
   -2.7406   -4.8275    0.0000 C   0  0  0  0  0  0  0  0  0  0  0  0
   -2.5838   -3.3357    0.0000 C   0  0  0  0  0  0  0  0  0  0  0  0
   -1.2135   -2.7256    0.0000 C   0  0  0  0  0  0  0  0  0  0  0  0
   -0.0000   -3.6073    0.0000 C   0  0  0  0  0  0  0  0  0  0  0  0
   -0.1568   -5.0991    0.0000 C   0  0  0  0  0  0  0  0  0  0  0  0
    1.0567   -5.9808    0.0000 O   0  0  0  0  0  0  0  0  0  0  0  0
    0.8999   -7.4725    0.0000 C   0  0  0  0  0  0  0  0  0  0  0  0
    1.2135   -2.7256    0.0000 C   0  0  0  0  0  0  0  0  0  0  0  0
    2.6401   -3.1891    0.0000 O   0  0  0  0  0  0  0  0  0  0  0  0
    0.7500   -1.2990    0.0000 N   0  0  0  0  0  0  0  0  0  0  0  0
    1.5000    0.0000    0.0000 C   0  0  0  0  0  0  0  0  0  0  0  0
    0.7500    1.2990    0.0000 C   0  0  0  0  0  0  0  0  0  0  0  0
   -0.7500    1.2990    0.0000 N   0  0  0  0  0  0  0  0  0  0  0  0
   -1.5000    0.0000    0.0000 C   0  0  0  0  0  0  0  0  0  0  0  0
   -0.7500   -1.2990    0.0000 C   0  0  0  0  0  0  0  0  0  0  0  0
  1  2  1  0
  2  3  1  0
  3  4  2  0
  4  5  1  0
  5  6  2  0
  6  7  1  0
  7  8  2  0
  8  9  1  0
  9 10  1  0
  7 11  1  0
 11 12  2  0
 11 13  1  0
 13 14  1  0
 14 15  1  0
 15 16  1  0
 16 17  1  0
 18 17  1  6
  8  3  1  0
 18 13  1  0
 18  6  1  0
M  END
>  <assay_chembl_id>  (95) 
CHEMBL918966

>  <assay_description>  (95) 
Displacement of [3H]LSD from human recombinant 5HT2B expressed in HEK293E cells

>  <parent_molecule_chembl_id>  (95) 
CHEMBL223468

>  <canonical_smiles>  (95) 
CCc1ccc2c(c1OC)C(=O)N1CCNC[C@@H]21

>  <standard_type>  (95) 
Ki

>  <standard_relation>  (95) 
=

>  <standard_value>  (95) 
18.0

>  <standard_units>  (95) 
nM

>  <target_pref_name>  (95) 
Serotonin 2b (5-HT2b) receptor

>  <target_chembl_id>  (95) 
CHEMBL1833

>  <target_organism>  (95) 
Homo sapiens

>  <pchembl_median>  (95) 
6.11

$$$$
CHEMBL385577
     RDKit          2D

 17 19  0  0  0  0  0  0  0  0999 V2000
    0.8999   -7.4725    0.0000 C   0  0  0  0  0  0  0  0  0  0  0  0
    1.0567   -5.9808    0.0000 O   0  0  0  0  0  0  0  0  0  0  0  0
   -0.1568   -5.0991    0.0000 C   0  0  0  0  0  0  0  0  0  0  0  0
   -1.5271   -5.7092    0.0000 C   0  0  0  0  0  0  0  0  0  0  0  0
   -1.6839   -7.2010    0.0000 Cl  0  0  0  0  0  0  0  0  0  0  0  0
   -2.7406   -4.8275    0.0000 C   0  0  0  0  0  0  0  0  0  0  0  0
   -2.5838   -3.3357    0.0000 C   0  0  0  0  0  0  0  0  0  0  0  0
   -1.2135   -2.7256    0.0000 C   0  0  0  0  0  0  0  0  0  0  0  0
   -0.0000   -3.6073    0.0000 C   0  0  0  0  0  0  0  0  0  0  0  0
    1.2135   -2.7256    0.0000 C   0  0  0  0  0  0  0  0  0  0  0  0
    2.6401   -3.1891    0.0000 O   0  0  0  0  0  0  0  0  0  0  0  0
    0.7500   -1.2990    0.0000 N   0  0  0  0  0  0  0  0  0  0  0  0
    1.5000    0.0000    0.0000 C   0  0  0  0  0  0  0  0  0  0  0  0
    0.7500    1.2990    0.0000 C   0  0  0  0  0  0  0  0  0  0  0  0
   -0.7500    1.2990    0.0000 N   0  0  0  0  0  0  0  0  0  0  0  0
   -1.5000    0.0000    0.0000 C   0  0  0  0  0  0  0  0  0  0  0  0
   -0.7500   -1.2990    0.0000 C   0  0  0  0  0  0  0  0  0  0  0  0
  1  2  1  0
  2  3  1  0
  3  4  2  0
  4  5  1  0
  4  6  1  0
  6  7  2  0
  7  8  1  0
  8  9  2  0
  9 10  1  0
 10 11  2  0
 10 12  1  0
 12 13  1  0
 13 14  1  0
 14 15  1  0
 15 16  1  0
 17 16  1  6
  9  3  1  0
 17 12  1  0
 17  8  1  0
M  END
>  <assay_chembl_id>  (96) 
CHEMBL918966

>  <assay_description>  (96) 
Displacement of [3H]LSD from human recombinant 5HT2B expressed in HEK293E cells

>  <parent_molecule_chembl_id>  (96) 
CHEMBL385577

>  <canonical_smiles>  (96) 
COc1c(Cl)ccc2c1C(=O)N1CCNC[C@@H]21

>  <standard_type>  (96) 
Ki

>  <standard_relation>  (96) 
=

>  <standard_value>  (96) 
86.0

>  <standard_units>  (96) 
nM

>  <target_pref_name>  (96) 
Serotonin 2b (5-HT2b) receptor

>  <target_chembl_id>  (96) 
CHEMBL1833

>  <target_organism>  (96) 
Homo sapiens

>  <pchembl_median>  (96) 
5.74

$$$$
CHEMBL220900
     RDKit          2D

 16 18  0  0  0  0  0  0  0  0999 V2000
   -2.6401   -3.1891    0.0000 O   0  0  0  0  0  0  0  0  0  0  0  0
   -1.2135   -2.7256    0.0000 C   0  0  0  0  0  0  0  0  0  0  0  0
   -0.0000   -3.6073    0.0000 C   0  0  0  0  0  0  0  0  0  0  0  0
    1.2135   -2.7256    0.0000 C   0  0  0  0  0  0  0  0  0  0  0  0
    2.5838   -3.3357    0.0000 C   0  0  0  0  0  0  0  0  0  0  0  0
    2.7406   -4.8275    0.0000 C   0  0  0  0  0  0  0  0  0  0  0  0
    1.5271   -5.7092    0.0000 C   0  0  0  0  0  0  0  0  0  0  0  0
    1.6839   -7.2010    0.0000 Cl  0  0  0  0  0  0  0  0  0  0  0  0
    0.1568   -5.0991    0.0000 C   0  0  0  0  0  0  0  0  0  0  0  0
   -1.0567   -5.9808    0.0000 Cl  0  0  0  0  0  0  0  0  0  0  0  0
    0.7500   -1.2990    0.0000 C   0  0  0  0  0  0  0  0  0  0  0  0
    1.5000    0.0000    0.0000 C   0  0  0  0  0  0  0  0  0  0  0  0
    0.7500    1.2990    0.0000 N   0  0  0  0  0  0  0  0  0  0  0  0
   -0.7500    1.2990    0.0000 C   0  0  0  0  0  0  0  0  0  0  0  0
   -1.5000    0.0000    0.0000 C   0  0  0  0  0  0  0  0  0  0  0  0
   -0.7500   -1.2990    0.0000 N   0  0  0  0  0  0  0  0  0  0  0  0
  1  2  2  0
  2  3  1  0
  3  4  2  0
  4  5  1  0
  5  6  2  0
  6  7  1  0
  7  8  1  0
  7  9  2  0
  9 10  1  0
  4 11  1  0
 11 12  1  1
 12 13  1  0
 13 14  1  0
 14 15  1  0
 15 16  1  0
 16  2  1  0
  9  3  1  0
 16 11  1  0
M  END
>  <assay_chembl_id>  (97) 
CHEMBL918966

>  <assay_description>  (97) 
Displacement of [3H]LSD from human recombinant 5HT2B expressed in HEK293E cells

>  <parent_molecule_chembl_id>  (97) 
CHEMBL220900

>  <canonical_smiles>  (97) 
O=C1c2c(ccc(Cl)c2Cl)[C@@H]2CNCCN12

>  <standard_type>  (97) 
Ki

>  <standard_relation>  (97) 
=

>  <standard_value>  (97) 
70.0

>  <standard_units>  (97) 
nM

>  <target_pref_name>  (97) 
Serotonin 2b (5-HT2b) receptor

>  <target_chembl_id>  (97) 
CHEMBL1833

>  <target_organism>  (97) 
Homo sapiens

>  <pchembl_median>  (97) 
6.76

$$$$
CHEMBL375575
     RDKit          2D

 19 21  0  0  0  0  0  0  0  0999 V2000
   -2.6401   -3.1891    0.0000 O   0  0  0  0  0  0  0  0  0  0  0  0
   -1.2135   -2.7256    0.0000 C   0  0  0  0  0  0  0  0  0  0  0  0
   -0.0000   -3.6073    0.0000 C   0  0  0  0  0  0  0  0  0  0  0  0
    0.1568   -5.0991    0.0000 C   0  0  0  0  0  0  0  0  0  0  0  0
   -1.0567   -5.9808    0.0000 C   0  0  0  0  0  0  0  0  0  0  0  0
   -2.2703   -6.8624    0.0000 F   0  0  0  0  0  0  0  0  0  0  0  0
   -0.1751   -7.1943    0.0000 F   0  0  0  0  0  0  0  0  0  0  0  0
   -1.9384   -4.7672    0.0000 F   0  0  0  0  0  0  0  0  0  0  0  0
    1.5271   -5.7092    0.0000 C   0  0  0  0  0  0  0  0  0  0  0  0
    2.7406   -4.8275    0.0000 C   0  0  0  0  0  0  0  0  0  0  0  0
    2.5838   -3.3357    0.0000 C   0  0  0  0  0  0  0  0  0  0  0  0
    3.7974   -2.4540    0.0000 Cl  0  0  0  0  0  0  0  0  0  0  0  0
    1.2135   -2.7256    0.0000 C   0  0  0  0  0  0  0  0  0  0  0  0
    0.7500   -1.2990    0.0000 C   0  0  0  0  0  0  0  0  0  0  0  0
    1.5000    0.0000    0.0000 C   0  0  0  0  0  0  0  0  0  0  0  0
    0.7500    1.2990    0.0000 N   0  0  0  0  0  0  0  0  0  0  0  0
   -0.7500    1.2990    0.0000 C   0  0  0  0  0  0  0  0  0  0  0  0
   -1.5000    0.0000    0.0000 C   0  0  0  0  0  0  0  0  0  0  0  0
   -0.7500   -1.2990    0.0000 N   0  0  0  0  0  0  0  0  0  0  0  0
  1  2  2  0
  2  3  1  0
  3  4  2  0
  4  5  1  0
  5  6  1  0
  5  7  1  0
  5  8  1  0
  4  9  1  0
  9 10  2  0
 10 11  1  0
 11 12  1  0
 11 13  2  0
 13 14  1  0
 14 15  1  1
 15 16  1  0
 16 17  1  0
 17 18  1  0
 18 19  1  0
 19  2  1  0
 13  3  1  0
 19 14  1  0
M  END
>  <assay_chembl_id>  (98) 
CHEMBL918966

>  <assay_description>  (98) 
Displacement of [3H]LSD from human recombinant 5HT2B expressed in HEK293E cells

>  <parent_molecule_chembl_id>  (98) 
CHEMBL375575

>  <canonical_smiles>  (98) 
O=C1c2c(C(F)(F)F)ccc(Cl)c2[C@@H]2CNCCN12

>  <standard_type>  (98) 
Ki

>  <standard_relation>  (98) 
=

>  <standard_value>  (98) 
4030.0

>  <standard_units>  (98) 
nM

>  <target_pref_name>  (98) 
Serotonin 2b (5-HT2b) receptor

>  <target_chembl_id>  (98) 
CHEMBL1833

>  <target_organism>  (98) 
Homo sapiens

>  <pchembl_median>  (98) 
6.66

$$$$
CHEMBL373531
     RDKit          2D

 17 19  0  0  0  0  0  0  0  0999 V2000
    5.1677   -3.0642    0.0000 C   0  0  0  0  0  0  0  0  0  0  0  0
    3.7974   -2.4540    0.0000 O   0  0  0  0  0  0  0  0  0  0  0  0
    2.5838   -3.3357    0.0000 C   0  0  0  0  0  0  0  0  0  0  0  0
    2.7406   -4.8275    0.0000 C   0  0  0  0  0  0  0  0  0  0  0  0
    1.5271   -5.7092    0.0000 C   0  0  0  0  0  0  0  0  0  0  0  0
    0.1568   -5.0991    0.0000 C   0  0  0  0  0  0  0  0  0  0  0  0
   -1.0567   -5.9808    0.0000 Cl  0  0  0  0  0  0  0  0  0  0  0  0
    0.0000   -3.6073    0.0000 C   0  0  0  0  0  0  0  0  0  0  0  0
    1.2135   -2.7256    0.0000 C   0  0  0  0  0  0  0  0  0  0  0  0
    0.7500   -1.2990    0.0000 C   0  0  0  0  0  0  0  0  0  0  0  0
    1.5000    0.0000    0.0000 C   0  0  0  0  0  0  0  0  0  0  0  0
    0.7500    1.2990    0.0000 N   0  0  0  0  0  0  0  0  0  0  0  0
   -0.7500    1.2990    0.0000 C   0  0  0  0  0  0  0  0  0  0  0  0
   -1.5000    0.0000    0.0000 C   0  0  0  0  0  0  0  0  0  0  0  0
   -0.7500   -1.2990    0.0000 N   0  0  0  0  0  0  0  0  0  0  0  0
   -1.2135   -2.7256    0.0000 C   0  0  0  0  0  0  0  0  0  0  0  0
   -2.6401   -3.1891    0.0000 O   0  0  0  0  0  0  0  0  0  0  0  0
  1  2  1  0
  2  3  1  0
  3  4  2  0
  4  5  1  0
  5  6  2  0
  6  7  1  0
  6  8  1  0
  8  9  2  0
  9 10  1  0
 10 11  1  1
 11 12  1  0
 12 13  1  0
 13 14  1  0
 14 15  1  0
 15 16  1  0
 16 17  2  0
  9  3  1  0
 15 10  1  0
 16  8  1  0
M  END
>  <assay_chembl_id>  (99) 
CHEMBL918966

>  <assay_description>  (99) 
Displacement of [3H]LSD from human recombinant 5HT2B expressed in HEK293E cells

>  <parent_molecule_chembl_id>  (99) 
CHEMBL373531

>  <canonical_smiles>  (99) 
COc1ccc(Cl)c2c1[C@@H]1CNCCN1C2=O

>  <standard_type>  (99) 
Ki

>  <standard_relation>  (99) 
=

>  <standard_value>  (99) 
1420.0

>  <standard_units>  (99) 
nM

>  <target_pref_name>  (99) 
Serotonin 2b (5-HT2b) receptor

>  <target_chembl_id>  (99) 
CHEMBL1833

>  <target_organism>  (99) 
Homo sapiens

>  <pchembl_median>  (99) 
7.32

$$$$
CHEMBL223466
     RDKit          2D

 17 19  0  0  0  0  0  0  0  0999 V2000
    5.1677   -3.0642    0.0000 C   0  0  0  0  0  0  0  0  0  0  0  0
    3.7974   -2.4540    0.0000 C   0  0  0  0  0  0  0  0  0  0  0  0
    2.5838   -3.3357    0.0000 C   0  0  0  0  0  0  0  0  0  0  0  0
    2.7406   -4.8275    0.0000 C   0  0  0  0  0  0  0  0  0  0  0  0
    1.5271   -5.7092    0.0000 C   0  0  0  0  0  0  0  0  0  0  0  0
    0.1568   -5.0991    0.0000 C   0  0  0  0  0  0  0  0  0  0  0  0
   -1.0567   -5.9808    0.0000 Cl  0  0  0  0  0  0  0  0  0  0  0  0
    0.0000   -3.6073    0.0000 C   0  0  0  0  0  0  0  0  0  0  0  0
    1.2135   -2.7256    0.0000 C   0  0  0  0  0  0  0  0  0  0  0  0
    0.7500   -1.2990    0.0000 C   0  0  0  0  0  0  0  0  0  0  0  0
    1.5000    0.0000    0.0000 C   0  0  0  0  0  0  0  0  0  0  0  0
    0.7500    1.2990    0.0000 N   0  0  0  0  0  0  0  0  0  0  0  0
   -0.7500    1.2990    0.0000 C   0  0  0  0  0  0  0  0  0  0  0  0
   -1.5000    0.0000    0.0000 C   0  0  0  0  0  0  0  0  0  0  0  0
   -0.7500   -1.2990    0.0000 N   0  0  0  0  0  0  0  0  0  0  0  0
   -1.2135   -2.7256    0.0000 C   0  0  0  0  0  0  0  0  0  0  0  0
   -2.6401   -3.1891    0.0000 O   0  0  0  0  0  0  0  0  0  0  0  0
  1  2  1  0
  2  3  1  0
  3  4  2  0
  4  5  1  0
  5  6  2  0
  6  7  1  0
  6  8  1  0
  8  9  2  0
  9 10  1  0
 10 11  1  1
 11 12  1  0
 12 13  1  0
 13 14  1  0
 14 15  1  0
 15 16  1  0
 16 17  2  0
  9  3  1  0
 15 10  1  0
 16  8  1  0
M  END
>  <assay_chembl_id>  (100) 
CHEMBL918966

>  <assay_description>  (100) 
Displacement of [3H]LSD from human recombinant 5HT2B expressed in HEK293E cells

>  <parent_molecule_chembl_id>  (100) 
CHEMBL223466

>  <canonical_smiles>  (100) 
CCc1ccc(Cl)c2c1[C@@H]1CNCCN1C2=O

>  <standard_type>  (100) 
Ki

>  <standard_relation>  (100) 
=

>  <standard_value>  (100) 
547.0

>  <standard_units>  (100) 
nM

>  <target_pref_name>  (100) 
Serotonin 2b (5-HT2b) receptor

>  <target_chembl_id>  (100) 
CHEMBL1833

>  <target_organism>  (100) 
Homo sapiens

>  <pchembl_median>  (100) 
7.09

$$$$
CHEMBL223292
     RDKit          2D

 16 18  0  0  0  0  0  0  0  0999 V2000
    3.7974   -2.4540    0.0000 C   0  0  0  0  0  0  0  0  0  0  0  0
    2.5838   -3.3357    0.0000 C   0  0  0  0  0  0  0  0  0  0  0  0
    2.7406   -4.8275    0.0000 C   0  0  0  0  0  0  0  0  0  0  0  0
    1.5271   -5.7092    0.0000 C   0  0  0  0  0  0  0  0  0  0  0  0
    0.1568   -5.0991    0.0000 C   0  0  0  0  0  0  0  0  0  0  0  0
   -1.0567   -5.9808    0.0000 Cl  0  0  0  0  0  0  0  0  0  0  0  0
    0.0000   -3.6073    0.0000 C   0  0  0  0  0  0  0  0  0  0  0  0
    1.2135   -2.7256    0.0000 C   0  0  0  0  0  0  0  0  0  0  0  0
    0.7500   -1.2990    0.0000 C   0  0  0  0  0  0  0  0  0  0  0  0
    1.5000    0.0000    0.0000 C   0  0  0  0  0  0  0  0  0  0  0  0
    0.7500    1.2990    0.0000 N   0  0  0  0  0  0  0  0  0  0  0  0
   -0.7500    1.2990    0.0000 C   0  0  0  0  0  0  0  0  0  0  0  0
   -1.5000    0.0000    0.0000 C   0  0  0  0  0  0  0  0  0  0  0  0
   -0.7500   -1.2990    0.0000 N   0  0  0  0  0  0  0  0  0  0  0  0
   -1.2135   -2.7256    0.0000 C   0  0  0  0  0  0  0  0  0  0  0  0
   -2.6401   -3.1891    0.0000 O   0  0  0  0  0  0  0  0  0  0  0  0
  1  2  1  0
  2  3  2  0
  3  4  1  0
  4  5  2  0
  5  6  1  0
  5  7  1  0
  7  8  2  0
  8  9  1  0
  9 10  1  1
 10 11  1  0
 11 12  1  0
 12 13  1  0
 13 14  1  0
 14 15  1  0
 15 16  2  0
  8  2  1  0
 14  9  1  0
 15  7  1  0
M  END
>  <assay_chembl_id>  (101) 
CHEMBL918966

>  <assay_description>  (101) 
Displacement of [3H]LSD from human recombinant 5HT2B expressed in HEK293E cells

>  <parent_molecule_chembl_id>  (101) 
CHEMBL223292

>  <canonical_smiles>  (101) 
Cc1ccc(Cl)c2c1[C@@H]1CNCCN1C2=O

>  <standard_type>  (101) 
Ki

>  <standard_relation>  (101) 
=

>  <standard_value>  (101) 
730.0

>  <standard_units>  (101) 
nM

>  <target_pref_name>  (101) 
Serotonin 2b (5-HT2b) receptor

>  <target_chembl_id>  (101) 
CHEMBL1833

>  <target_organism>  (101) 
Homo sapiens

>  <pchembl_median>  (101) 
6.66

$$$$
CHEMBL220833
     RDKit          2D

 22 25  0  0  0  0  0  0  0  0999 V2000
   -4.9497   -4.1941    0.0000 C   0  0  0  0  0  0  0  0  0  0  0  0
   -4.1110   -5.4376    0.0000 C   0  0  0  0  0  0  0  0  0  0  0  0
   -2.7406   -4.8275    0.0000 C   0  0  0  0  0  0  0  0  0  0  0  0
   -2.5838   -3.3357    0.0000 C   0  0  0  0  0  0  0  0  0  0  0  0
   -1.2135   -2.7256    0.0000 C   0  0  0  0  0  0  0  0  0  0  0  0
   -0.0000   -3.6073    0.0000 C   0  0  0  0  0  0  0  0  0  0  0  0
   -0.1568   -5.0991    0.0000 C   0  0  0  0  0  0  0  0  0  0  0  0
    1.0567   -5.9808    0.0000 C   0  0  0  0  0  0  0  0  0  0  0  0
    2.2703   -6.8624    0.0000 F   0  0  0  0  0  0  0  0  0  0  0  0
    0.1751   -7.1943    0.0000 F   0  0  0  0  0  0  0  0  0  0  0  0
    1.9384   -4.7672    0.0000 F   0  0  0  0  0  0  0  0  0  0  0  0
   -1.5271   -5.7092    0.0000 C   0  0  0  0  0  0  0  0  0  0  0  0
    1.2135   -2.7256    0.0000 C   0  0  0  0  0  0  0  0  0  0  0  0
    2.6401   -3.1891    0.0000 O   0  0  0  0  0  0  0  0  0  0  0  0
    0.7500   -1.2990    0.0000 N   0  0  0  0  0  0  0  0  0  0  0  0
    1.5000    0.0000    0.0000 C   0  0  0  0  0  0  0  0  0  0  0  0
    0.7500    1.2990    0.0000 C   0  0  0  0  0  0  0  0  0  0  0  0
   -0.7500    1.2990    0.0000 N   0  0  0  0  0  0  0  0  0  0  0  0
   -1.5000    0.0000    0.0000 C   0  0  0  0  0  0  0  0  0  0  0  0
   -0.7500   -1.2990    0.0000 C   0  0  0  0  0  0  0  0  0  0  0  0
   -5.1900   -6.4796    0.0000 C   0  0  0  0  0  0  0  0  0  0  0  0
   -3.7481   -6.8931    0.0000 C   0  0  0  0  0  0  0  0  0  0  0  0
  1  2  1  0
  2  3  1  0
  3  4  2  0
  4  5  1  0
  5  6  2  0
  6  7  1  0
  7  8  1  0
  8  9  1  0
  8 10  1  0
  8 11  1  0
  7 12  2  0
  6 13  1  0
 13 14  2  0
 13 15  1  0
 15 16  1  0
 16 17  1  0
 17 18  1  0
 18 19  1  0
 20 19  1  6
  2 21  1  0
 21 22  1  0
 22  2  1  0
 12  3  1  0
 20 15  1  0
 20  5  1  0
M  END
>  <assay_chembl_id>  (102) 
CHEMBL918966

>  <assay_description>  (102) 
Displacement of [3H]LSD from human recombinant 5HT2B expressed in HEK293E cells

>  <parent_molecule_chembl_id>  (102) 
CHEMBL220833

>  <canonical_smiles>  (102) 
CC1(c2cc3c(c(C(F)(F)F)c2)C(=O)N2CCNC[C@@H]32)CC1

>  <standard_type>  (102) 
Ki

>  <standard_relation>  (102) 
=

>  <standard_value>  (102) 
29.0

>  <standard_units>  (102) 
nM

>  <target_pref_name>  (102) 
Serotonin 2b (5-HT2b) receptor

>  <target_chembl_id>  (102) 
CHEMBL1833

>  <target_organism>  (102) 
Homo sapiens

>  <pchembl_median>  (102) 
5.8

$$$$
CHEMBL375170
     RDKit          2D

 21 24  0  0  0  0  0  0  0  0999 V2000
   -2.6401   -3.1891    0.0000 O   0  0  0  0  0  0  0  0  0  0  0  0
   -1.2135   -2.7256    0.0000 C   0  0  0  0  0  0  0  0  0  0  0  0
   -0.0000   -3.6073    0.0000 C   0  0  0  0  0  0  0  0  0  0  0  0
    1.2135   -2.7256    0.0000 C   0  0  0  0  0  0  0  0  0  0  0  0
    2.5838   -3.3357    0.0000 C   0  0  0  0  0  0  0  0  0  0  0  0
    2.7406   -4.8275    0.0000 C   0  0  0  0  0  0  0  0  0  0  0  0
    4.1110   -5.4376    0.0000 C   0  0  0  0  0  0  0  0  0  0  0  0
    5.6027   -5.2808    0.0000 C   0  0  0  0  0  0  0  0  0  0  0  0
    4.9926   -6.6511    0.0000 C   0  0  0  0  0  0  0  0  0  0  0  0
    1.5271   -5.7092    0.0000 C   0  0  0  0  0  0  0  0  0  0  0  0
    0.1568   -5.0991    0.0000 C   0  0  0  0  0  0  0  0  0  0  0  0
   -1.0567   -5.9808    0.0000 C   0  0  0  0  0  0  0  0  0  0  0  0
   -2.2703   -6.8624    0.0000 F   0  0  0  0  0  0  0  0  0  0  0  0
   -0.1751   -7.1943    0.0000 F   0  0  0  0  0  0  0  0  0  0  0  0
   -1.9384   -4.7672    0.0000 F   0  0  0  0  0  0  0  0  0  0  0  0
    0.7500   -1.2990    0.0000 C   0  0  0  0  0  0  0  0  0  0  0  0
    1.5000    0.0000    0.0000 C   0  0  0  0  0  0  0  0  0  0  0  0
    0.7500    1.2990    0.0000 N   0  0  0  0  0  0  0  0  0  0  0  0
   -0.7500    1.2990    0.0000 C   0  0  0  0  0  0  0  0  0  0  0  0
   -1.5000    0.0000    0.0000 C   0  0  0  0  0  0  0  0  0  0  0  0
   -0.7500   -1.2990    0.0000 N   0  0  0  0  0  0  0  0  0  0  0  0
  1  2  2  0
  2  3  1  0
  3  4  2  0
  4  5  1  0
  5  6  2  0
  6  7  1  0
  7  8  1  0
  8  9  1  0
  6 10  1  0
 10 11  2  0
 11 12  1  0
 12 13  1  0
 12 14  1  0
 12 15  1  0
  4 16  1  0
 16 17  1  1
 17 18  1  0
 18 19  1  0
 19 20  1  0
 20 21  1  0
 21  2  1  0
 11  3  1  0
 21 16  1  0
  9  7  1  0
M  END
>  <assay_chembl_id>  (103) 
CHEMBL918966

>  <assay_description>  (103) 
Displacement of [3H]LSD from human recombinant 5HT2B expressed in HEK293E cells

>  <parent_molecule_chembl_id>  (103) 
CHEMBL375170

>  <canonical_smiles>  (103) 
O=C1c2c(cc(C3CC3)cc2C(F)(F)F)[C@@H]2CNCCN12

>  <standard_type>  (103) 
Ki

>  <standard_relation>  (103) 
=

>  <standard_value>  (103) 
209.0

>  <standard_units>  (103) 
nM

>  <target_pref_name>  (103) 
Serotonin 2b (5-HT2b) receptor

>  <target_chembl_id>  (103) 
CHEMBL1833

>  <target_organism>  (103) 
Homo sapiens

>  <pchembl_median>  (103) 
6.36

$$$$
CHEMBL220115
     RDKit          2D

 20 22  0  0  0  0  0  0  0  0999 V2000
   -5.4813   -6.0477    0.0000 C   0  0  0  0  0  0  0  0  0  0  0  0
   -4.1110   -5.4376    0.0000 C   0  0  0  0  0  0  0  0  0  0  0  0
   -2.7406   -4.8275    0.0000 C   0  0  0  0  0  0  0  0  0  0  0  0
   -2.5838   -3.3357    0.0000 C   0  0  0  0  0  0  0  0  0  0  0  0
   -1.2135   -2.7256    0.0000 C   0  0  0  0  0  0  0  0  0  0  0  0
   -0.0000   -3.6073    0.0000 C   0  0  0  0  0  0  0  0  0  0  0  0
   -0.1568   -5.0991    0.0000 C   0  0  0  0  0  0  0  0  0  0  0  0
    1.0567   -5.9808    0.0000 C   0  0  0  0  0  0  0  0  0  0  0  0
    2.2703   -6.8624    0.0000 F   0  0  0  0  0  0  0  0  0  0  0  0
    0.1751   -7.1943    0.0000 F   0  0  0  0  0  0  0  0  0  0  0  0
    1.9384   -4.7672    0.0000 F   0  0  0  0  0  0  0  0  0  0  0  0
   -1.5271   -5.7092    0.0000 C   0  0  0  0  0  0  0  0  0  0  0  0
    1.2135   -2.7256    0.0000 C   0  0  0  0  0  0  0  0  0  0  0  0
    2.6401   -3.1891    0.0000 O   0  0  0  0  0  0  0  0  0  0  0  0
    0.7500   -1.2990    0.0000 N   0  0  0  0  0  0  0  0  0  0  0  0
    1.5000    0.0000    0.0000 C   0  0  0  0  0  0  0  0  0  0  0  0
    0.7500    1.2990    0.0000 C   0  0  0  0  0  0  0  0  0  0  0  0
   -0.7500    1.2990    0.0000 N   0  0  0  0  0  0  0  0  0  0  0  0
   -1.5000    0.0000    0.0000 C   0  0  0  0  0  0  0  0  0  0  0  0
   -0.7500   -1.2990    0.0000 C   0  0  0  0  0  0  0  0  0  0  0  0
  1  2  3  0
  2  3  1  0
  3  4  2  0
  4  5  1  0
  5  6  2  0
  6  7  1  0
  7  8  1  0
  8  9  1  0
  8 10  1  0
  8 11  1  0
  7 12  2  0
  6 13  1  0
 13 14  2  0
 13 15  1  0
 15 16  1  0
 16 17  1  0
 17 18  1  0
 18 19  1  0
 20 19  1  6
 12  3  1  0
 20 15  1  0
 20  5  1  0
M  END
>  <assay_chembl_id>  (104) 
CHEMBL918966

>  <assay_description>  (104) 
Displacement of [3H]LSD from human recombinant 5HT2B expressed in HEK293E cells

>  <parent_molecule_chembl_id>  (104) 
CHEMBL220115

>  <canonical_smiles>  (104) 
C#Cc1cc2c(c(C(F)(F)F)c1)C(=O)N1CCNC[C@@H]21

>  <standard_type>  (104) 
Ki

>  <standard_relation>  (104) 
=

>  <standard_value>  (104) 
2099.0

>  <standard_units>  (104) 
nM

>  <target_pref_name>  (104) 
Serotonin 2b (5-HT2b) receptor

>  <target_chembl_id>  (104) 
CHEMBL1833

>  <target_organism>  (104) 
Homo sapiens

>  <pchembl_median>  (104) 
6.11

$$$$
CHEMBL222566
     RDKit          2D

 20 22  0  0  0  0  0  0  0  0999 V2000
   -5.3245   -4.5559    0.0000 C   0  0  0  0  0  0  0  0  0  0  0  0
   -4.1110   -5.4376    0.0000 C   0  0  0  0  0  0  0  0  0  0  0  0
   -2.7406   -4.8275    0.0000 C   0  0  0  0  0  0  0  0  0  0  0  0
   -2.5838   -3.3357    0.0000 C   0  0  0  0  0  0  0  0  0  0  0  0
   -1.2135   -2.7256    0.0000 C   0  0  0  0  0  0  0  0  0  0  0  0
   -0.0000   -3.6073    0.0000 C   0  0  0  0  0  0  0  0  0  0  0  0
   -0.1568   -5.0991    0.0000 C   0  0  0  0  0  0  0  0  0  0  0  0
    1.0567   -5.9808    0.0000 C   0  0  0  0  0  0  0  0  0  0  0  0
    2.2703   -6.8624    0.0000 F   0  0  0  0  0  0  0  0  0  0  0  0
    0.1751   -7.1943    0.0000 F   0  0  0  0  0  0  0  0  0  0  0  0
    1.9384   -4.7672    0.0000 F   0  0  0  0  0  0  0  0  0  0  0  0
   -1.5271   -5.7092    0.0000 C   0  0  0  0  0  0  0  0  0  0  0  0
    1.2135   -2.7256    0.0000 C   0  0  0  0  0  0  0  0  0  0  0  0
    2.6401   -3.1891    0.0000 O   0  0  0  0  0  0  0  0  0  0  0  0
    0.7500   -1.2990    0.0000 N   0  0  0  0  0  0  0  0  0  0  0  0
    1.5000    0.0000    0.0000 C   0  0  0  0  0  0  0  0  0  0  0  0
    0.7500    1.2990    0.0000 C   0  0  0  0  0  0  0  0  0  0  0  0
   -0.7500    1.2990    0.0000 N   0  0  0  0  0  0  0  0  0  0  0  0
   -1.5000    0.0000    0.0000 C   0  0  0  0  0  0  0  0  0  0  0  0
   -0.7500   -1.2990    0.0000 C   0  0  0  0  0  0  0  0  0  0  0  0
  1  2  2  0
  2  3  1  0
  3  4  2  0
  4  5  1  0
  5  6  2  0
  6  7  1  0
  7  8  1  0
  8  9  1  0
  8 10  1  0
  8 11  1  0
  7 12  2  0
  6 13  1  0
 13 14  2  0
 13 15  1  0
 15 16  1  0
 16 17  1  0
 17 18  1  0
 18 19  1  0
 20 19  1  6
 12  3  1  0
 20 15  1  0
 20  5  1  0
M  END
>  <assay_chembl_id>  (105) 
CHEMBL918966

>  <assay_description>  (105) 
Displacement of [3H]LSD from human recombinant 5HT2B expressed in HEK293E cells

>  <parent_molecule_chembl_id>  (105) 
CHEMBL222566

>  <canonical_smiles>  (105) 
C=Cc1cc2c(c(C(F)(F)F)c1)C(=O)N1CCNC[C@@H]21

>  <standard_type>  (105) 
Ki

>  <standard_relation>  (105) 
=

>  <standard_value>  (105) 
648.0

>  <standard_units>  (105) 
nM

>  <target_pref_name>  (105) 
Serotonin 2b (5-HT2b) receptor

>  <target_chembl_id>  (105) 
CHEMBL1833

>  <target_organism>  (105) 
Homo sapiens

>  <pchembl_median>  (105) 
5.86

$$$$
CHEMBL373695
     RDKit          2D

 21 23  0  0  0  0  0  0  0  0999 V2000
   -5.3245   -4.5559    0.0000 C   0  0  0  0  0  0  0  0  0  0  0  0
   -4.1110   -5.4376    0.0000 C   0  0  0  0  0  0  0  0  0  0  0  0
   -4.2677   -6.9294    0.0000 C   0  0  0  0  0  0  0  0  0  0  0  0
   -2.7406   -4.8275    0.0000 C   0  0  0  0  0  0  0  0  0  0  0  0
   -2.5838   -3.3357    0.0000 C   0  0  0  0  0  0  0  0  0  0  0  0
   -1.2135   -2.7256    0.0000 C   0  0  0  0  0  0  0  0  0  0  0  0
   -0.0000   -3.6073    0.0000 C   0  0  0  0  0  0  0  0  0  0  0  0
   -0.1568   -5.0991    0.0000 C   0  0  0  0  0  0  0  0  0  0  0  0
    1.0567   -5.9808    0.0000 C   0  0  0  0  0  0  0  0  0  0  0  0
    2.2703   -6.8624    0.0000 F   0  0  0  0  0  0  0  0  0  0  0  0
    0.1751   -7.1943    0.0000 F   0  0  0  0  0  0  0  0  0  0  0  0
    1.9384   -4.7672    0.0000 F   0  0  0  0  0  0  0  0  0  0  0  0
   -1.5271   -5.7092    0.0000 C   0  0  0  0  0  0  0  0  0  0  0  0
    1.2135   -2.7256    0.0000 C   0  0  0  0  0  0  0  0  0  0  0  0
    2.6401   -3.1891    0.0000 O   0  0  0  0  0  0  0  0  0  0  0  0
    0.7500   -1.2990    0.0000 N   0  0  0  0  0  0  0  0  0  0  0  0
    1.5000    0.0000    0.0000 C   0  0  0  0  0  0  0  0  0  0  0  0
    0.7500    1.2990    0.0000 C   0  0  0  0  0  0  0  0  0  0  0  0
   -0.7500    1.2990    0.0000 N   0  0  0  0  0  0  0  0  0  0  0  0
   -1.5000    0.0000    0.0000 C   0  0  0  0  0  0  0  0  0  0  0  0
   -0.7500   -1.2990    0.0000 C   0  0  0  0  0  0  0  0  0  0  0  0
  1  2  1  0
  2  3  1  0
  2  4  1  0
  4  5  2  0
  5  6  1  0
  6  7  2  0
  7  8  1  0
  8  9  1  0
  9 10  1  0
  9 11  1  0
  9 12  1  0
  8 13  2  0
  7 14  1  0
 14 15  2  0
 14 16  1  0
 16 17  1  0
 17 18  1  0
 18 19  1  0
 19 20  1  0
 21 20  1  6
 13  4  1  0
 21 16  1  0
 21  6  1  0
M  END
>  <assay_chembl_id>  (106) 
CHEMBL918966

>  <assay_description>  (106) 
Displacement of [3H]LSD from human recombinant 5HT2B expressed in HEK293E cells

>  <parent_molecule_chembl_id>  (106) 
CHEMBL373695

>  <canonical_smiles>  (106) 
CC(C)c1cc2c(c(C(F)(F)F)c1)C(=O)N1CCNC[C@@H]21

>  <standard_type>  (106) 
Ki

>  <standard_relation>  (106) 
=

>  <standard_value>  (106) 
190.0

>  <standard_units>  (106) 
nM

>  <target_pref_name>  (106) 
Serotonin 2b (5-HT2b) receptor

>  <target_chembl_id>  (106) 
CHEMBL1833

>  <target_organism>  (106) 
Homo sapiens

>  <pchembl_median>  (106) 
5.85

$$$$
CHEMBL373483
     RDKit          2D

 22 24  0  0  0  0  0  0  0  0999 V2000
   -7.9083   -4.2844    0.0000 C   0  0  0  0  0  0  0  0  0  0  0  0
   -6.6948   -5.1660    0.0000 C   0  0  0  0  0  0  0  0  0  0  0  0
   -5.3245   -4.5559    0.0000 C   0  0  0  0  0  0  0  0  0  0  0  0
   -4.1110   -5.4376    0.0000 C   0  0  0  0  0  0  0  0  0  0  0  0
   -2.7406   -4.8275    0.0000 C   0  0  0  0  0  0  0  0  0  0  0  0
   -2.5838   -3.3357    0.0000 C   0  0  0  0  0  0  0  0  0  0  0  0
   -1.2135   -2.7256    0.0000 C   0  0  0  0  0  0  0  0  0  0  0  0
   -0.0000   -3.6073    0.0000 C   0  0  0  0  0  0  0  0  0  0  0  0
   -0.1568   -5.0991    0.0000 C   0  0  0  0  0  0  0  0  0  0  0  0
    1.0567   -5.9808    0.0000 C   0  0  0  0  0  0  0  0  0  0  0  0
    2.2703   -6.8624    0.0000 F   0  0  0  0  0  0  0  0  0  0  0  0
    0.1751   -7.1943    0.0000 F   0  0  0  0  0  0  0  0  0  0  0  0
    1.9384   -4.7672    0.0000 F   0  0  0  0  0  0  0  0  0  0  0  0
   -1.5271   -5.7092    0.0000 C   0  0  0  0  0  0  0  0  0  0  0  0
    1.2135   -2.7256    0.0000 C   0  0  0  0  0  0  0  0  0  0  0  0
    2.6401   -3.1891    0.0000 O   0  0  0  0  0  0  0  0  0  0  0  0
    0.7500   -1.2990    0.0000 N   0  0  0  0  0  0  0  0  0  0  0  0
    1.5000    0.0000    0.0000 C   0  0  0  0  0  0  0  0  0  0  0  0
    0.7500    1.2990    0.0000 C   0  0  0  0  0  0  0  0  0  0  0  0
   -0.7500    1.2990    0.0000 N   0  0  0  0  0  0  0  0  0  0  0  0
   -1.5000    0.0000    0.0000 C   0  0  0  0  0  0  0  0  0  0  0  0
   -0.7500   -1.2990    0.0000 C   0  0  0  0  0  0  0  0  0  0  0  0
  1  2  1  0
  2  3  1  0
  3  4  1  0
  4  5  1  0
  5  6  2  0
  6  7  1  0
  7  8  2  0
  8  9  1  0
  9 10  1  0
 10 11  1  0
 10 12  1  0
 10 13  1  0
  9 14  2  0
  8 15  1  0
 15 16  2  0
 15 17  1  0
 17 18  1  0
 18 19  1  0
 19 20  1  0
 20 21  1  0
 22 21  1  6
 14  5  1  0
 22 17  1  0
 22  7  1  0
M  END
>  <assay_chembl_id>  (107) 
CHEMBL918966

>  <assay_description>  (107) 
Displacement of [3H]LSD from human recombinant 5HT2B expressed in HEK293E cells

>  <parent_molecule_chembl_id>  (107) 
CHEMBL373483

>  <canonical_smiles>  (107) 
CCCCc1cc2c(c(C(F)(F)F)c1)C(=O)N1CCNC[C@@H]21

>  <standard_type>  (107) 
Ki

>  <standard_relation>  (107) 
=

>  <standard_value>  (107) 
220.0

>  <standard_units>  (107) 
nM

>  <target_pref_name>  (107) 
Serotonin 2b (5-HT2b) receptor

>  <target_chembl_id>  (107) 
CHEMBL1833

>  <target_organism>  (107) 
Homo sapiens

>  <pchembl_median>  (107) 
7.0

$$$$
CHEMBL373905
     RDKit          2D

 21 23  0  0  0  0  0  0  0  0999 V2000
   -6.6948   -5.1660    0.0000 C   0  0  0  0  0  0  0  0  0  0  0  0
   -5.3245   -4.5559    0.0000 C   0  0  0  0  0  0  0  0  0  0  0  0
   -4.1110   -5.4376    0.0000 C   0  0  0  0  0  0  0  0  0  0  0  0
   -2.7406   -4.8275    0.0000 C   0  0  0  0  0  0  0  0  0  0  0  0
   -2.5838   -3.3357    0.0000 C   0  0  0  0  0  0  0  0  0  0  0  0
   -1.2135   -2.7256    0.0000 C   0  0  0  0  0  0  0  0  0  0  0  0
   -0.0000   -3.6073    0.0000 C   0  0  0  0  0  0  0  0  0  0  0  0
   -0.1568   -5.0991    0.0000 C   0  0  0  0  0  0  0  0  0  0  0  0
    1.0567   -5.9808    0.0000 C   0  0  0  0  0  0  0  0  0  0  0  0
    2.2703   -6.8624    0.0000 F   0  0  0  0  0  0  0  0  0  0  0  0
    0.1751   -7.1943    0.0000 F   0  0  0  0  0  0  0  0  0  0  0  0
    1.9384   -4.7672    0.0000 F   0  0  0  0  0  0  0  0  0  0  0  0
   -1.5271   -5.7092    0.0000 C   0  0  0  0  0  0  0  0  0  0  0  0
    1.2135   -2.7256    0.0000 C   0  0  0  0  0  0  0  0  0  0  0  0
    2.6401   -3.1891    0.0000 O   0  0  0  0  0  0  0  0  0  0  0  0
    0.7500   -1.2990    0.0000 N   0  0  0  0  0  0  0  0  0  0  0  0
    1.5000    0.0000    0.0000 C   0  0  0  0  0  0  0  0  0  0  0  0
    0.7500    1.2990    0.0000 C   0  0  0  0  0  0  0  0  0  0  0  0
   -0.7500    1.2990    0.0000 N   0  0  0  0  0  0  0  0  0  0  0  0
   -1.5000    0.0000    0.0000 C   0  0  0  0  0  0  0  0  0  0  0  0
   -0.7500   -1.2990    0.0000 C   0  0  0  0  0  0  0  0  0  0  0  0
  1  2  1  0
  2  3  1  0
  3  4  1  0
  4  5  2  0
  5  6  1  0
  6  7  2  0
  7  8  1  0
  8  9  1  0
  9 10  1  0
  9 11  1  0
  9 12  1  0
  8 13  2  0
  7 14  1  0
 14 15  2  0
 14 16  1  0
 16 17  1  0
 17 18  1  0
 18 19  1  0
 19 20  1  0
 21 20  1  6
 13  4  1  0
 21 16  1  0
 21  6  1  0
M  END
>  <assay_chembl_id>  (108) 
CHEMBL918966

>  <assay_description>  (108) 
Displacement of [3H]LSD from human recombinant 5HT2B expressed in HEK293E cells

>  <parent_molecule_chembl_id>  (108) 
CHEMBL373905

>  <canonical_smiles>  (108) 
CCCc1cc2c(c(C(F)(F)F)c1)C(=O)N1CCNC[C@@H]21

>  <standard_type>  (108) 
Ki

>  <standard_relation>  (108) 
=

>  <standard_value>  (108) 
380.0

>  <standard_units>  (108) 
nM

>  <target_pref_name>  (108) 
Serotonin 2b (5-HT2b) receptor

>  <target_chembl_id>  (108) 
CHEMBL1833

>  <target_organism>  (108) 
Homo sapiens

>  <pchembl_median>  (108) 
6.05

$$$$
CHEMBL221113
     RDKit          2D

 20 22  0  0  0  0  0  0  0  0999 V2000
   -5.3245   -4.5559    0.0000 C   0  0  0  0  0  0  0  0  0  0  0  0
   -4.1110   -5.4376    0.0000 C   0  0  0  0  0  0  0  0  0  0  0  0
   -2.7406   -4.8275    0.0000 C   0  0  0  0  0  0  0  0  0  0  0  0
   -2.5838   -3.3357    0.0000 C   0  0  0  0  0  0  0  0  0  0  0  0
   -1.2135   -2.7256    0.0000 C   0  0  0  0  0  0  0  0  0  0  0  0
   -0.0000   -3.6073    0.0000 C   0  0  0  0  0  0  0  0  0  0  0  0
   -0.1568   -5.0991    0.0000 C   0  0  0  0  0  0  0  0  0  0  0  0
    1.0567   -5.9808    0.0000 C   0  0  0  0  0  0  0  0  0  0  0  0
    2.2703   -6.8624    0.0000 F   0  0  0  0  0  0  0  0  0  0  0  0
    0.1751   -7.1943    0.0000 F   0  0  0  0  0  0  0  0  0  0  0  0
    1.9384   -4.7672    0.0000 F   0  0  0  0  0  0  0  0  0  0  0  0
   -1.5271   -5.7092    0.0000 C   0  0  0  0  0  0  0  0  0  0  0  0
    1.2135   -2.7256    0.0000 C   0  0  0  0  0  0  0  0  0  0  0  0
    2.6401   -3.1891    0.0000 O   0  0  0  0  0  0  0  0  0  0  0  0
    0.7500   -1.2990    0.0000 N   0  0  0  0  0  0  0  0  0  0  0  0
    1.5000    0.0000    0.0000 C   0  0  0  0  0  0  0  0  0  0  0  0
    0.7500    1.2990    0.0000 C   0  0  0  0  0  0  0  0  0  0  0  0
   -0.7500    1.2990    0.0000 N   0  0  0  0  0  0  0  0  0  0  0  0
   -1.5000    0.0000    0.0000 C   0  0  0  0  0  0  0  0  0  0  0  0
   -0.7500   -1.2990    0.0000 C   0  0  0  0  0  0  0  0  0  0  0  0
  1  2  1  0
  2  3  1  0
  3  4  2  0
  4  5  1  0
  5  6  2  0
  6  7  1  0
  7  8  1  0
  8  9  1  0
  8 10  1  0
  8 11  1  0
  7 12  2  0
  6 13  1  0
 13 14  2  0
 13 15  1  0
 15 16  1  0
 16 17  1  0
 17 18  1  0
 18 19  1  0
 20 19  1  6
 12  3  1  0
 20 15  1  0
 20  5  1  0
M  END
>  <assay_chembl_id>  (109) 
CHEMBL918966

>  <assay_description>  (109) 
Displacement of [3H]LSD from human recombinant 5HT2B expressed in HEK293E cells

>  <parent_molecule_chembl_id>  (109) 
CHEMBL221113

>  <canonical_smiles>  (109) 
CCc1cc2c(c(C(F)(F)F)c1)C(=O)N1CCNC[C@@H]21

>  <standard_type>  (109) 
Ki

>  <standard_relation>  (109) 
=

>  <standard_value>  (109) 
153.0

>  <standard_units>  (109) 
nM

>  <target_pref_name>  (109) 
Serotonin 2b (5-HT2b) receptor

>  <target_chembl_id>  (109) 
CHEMBL1833

>  <target_organism>  (109) 
Homo sapiens

>  <pchembl_median>  (109) 
6.31

$$$$
CHEMBL374562
     RDKit          2D

 19 21  0  0  0  0  0  0  0  0999 V2000
   -4.1110   -5.4376    0.0000 C   0  0  0  0  0  0  0  0  0  0  0  0
   -2.7406   -4.8275    0.0000 C   0  0  0  0  0  0  0  0  0  0  0  0
   -2.5838   -3.3357    0.0000 C   0  0  0  0  0  0  0  0  0  0  0  0
   -1.2135   -2.7256    0.0000 C   0  0  0  0  0  0  0  0  0  0  0  0
   -0.0000   -3.6073    0.0000 C   0  0  0  0  0  0  0  0  0  0  0  0
   -0.1568   -5.0991    0.0000 C   0  0  0  0  0  0  0  0  0  0  0  0
    1.0567   -5.9808    0.0000 C   0  0  0  0  0  0  0  0  0  0  0  0
    2.2703   -6.8624    0.0000 F   0  0  0  0  0  0  0  0  0  0  0  0
    0.1751   -7.1943    0.0000 F   0  0  0  0  0  0  0  0  0  0  0  0
    1.9384   -4.7672    0.0000 F   0  0  0  0  0  0  0  0  0  0  0  0
   -1.5271   -5.7092    0.0000 C   0  0  0  0  0  0  0  0  0  0  0  0
    1.2135   -2.7256    0.0000 C   0  0  0  0  0  0  0  0  0  0  0  0
    2.6401   -3.1891    0.0000 O   0  0  0  0  0  0  0  0  0  0  0  0
    0.7500   -1.2990    0.0000 N   0  0  0  0  0  0  0  0  0  0  0  0
    1.5000    0.0000    0.0000 C   0  0  0  0  0  0  0  0  0  0  0  0
    0.7500    1.2990    0.0000 C   0  0  0  0  0  0  0  0  0  0  0  0
   -0.7500    1.2990    0.0000 N   0  0  0  0  0  0  0  0  0  0  0  0
   -1.5000    0.0000    0.0000 C   0  0  0  0  0  0  0  0  0  0  0  0
   -0.7500   -1.2990    0.0000 C   0  0  0  0  0  0  0  0  0  0  0  0
  1  2  1  0
  2  3  2  0
  3  4  1  0
  4  5  2  0
  5  6  1  0
  6  7  1  0
  7  8  1  0
  7  9  1  0
  7 10  1  0
  6 11  2  0
  5 12  1  0
 12 13  2  0
 12 14  1  0
 14 15  1  0
 15 16  1  0
 16 17  1  0
 17 18  1  0
 19 18  1  6
 11  2  1  0
 19 14  1  0
 19  4  1  0
M  END
>  <assay_chembl_id>  (110) 
CHEMBL918966

>  <assay_description>  (110) 
Displacement of [3H]LSD from human recombinant 5HT2B expressed in HEK293E cells

>  <parent_molecule_chembl_id>  (110) 
CHEMBL374562

>  <canonical_smiles>  (110) 
Cc1cc2c(c(C(F)(F)F)c1)C(=O)N1CCNC[C@@H]21

>  <standard_type>  (110) 
Ki

>  <standard_relation>  (110) 
=

>  <standard_value>  (110) 
336.0

>  <standard_units>  (110) 
nM

>  <target_pref_name>  (110) 
Serotonin 2b (5-HT2b) receptor

>  <target_chembl_id>  (110) 
CHEMBL1833

>  <target_organism>  (110) 
Homo sapiens

>  <pchembl_median>  (110) 
6.18

$$$$
CHEMBL374660
     RDKit          2D

 21 23  0  0  0  0  0  0  0  0999 V2000
   -6.6948   -5.1660    0.0000 C   0  0  0  0  0  0  0  0  0  0  0  0
   -5.3245   -4.5559    0.0000 C   0  0  0  0  0  0  0  0  0  0  0  0
   -4.1110   -5.4376    0.0000 O   0  0  0  0  0  0  0  0  0  0  0  0
   -2.7406   -4.8275    0.0000 C   0  0  0  0  0  0  0  0  0  0  0  0
   -2.5838   -3.3357    0.0000 C   0  0  0  0  0  0  0  0  0  0  0  0
   -1.2135   -2.7256    0.0000 C   0  0  0  0  0  0  0  0  0  0  0  0
   -0.0000   -3.6073    0.0000 C   0  0  0  0  0  0  0  0  0  0  0  0
   -0.1568   -5.0991    0.0000 C   0  0  0  0  0  0  0  0  0  0  0  0
    1.0567   -5.9808    0.0000 C   0  0  0  0  0  0  0  0  0  0  0  0
    2.2703   -6.8624    0.0000 F   0  0  0  0  0  0  0  0  0  0  0  0
    0.1751   -7.1943    0.0000 F   0  0  0  0  0  0  0  0  0  0  0  0
    1.9384   -4.7672    0.0000 F   0  0  0  0  0  0  0  0  0  0  0  0
   -1.5271   -5.7092    0.0000 C   0  0  0  0  0  0  0  0  0  0  0  0
    1.2135   -2.7256    0.0000 C   0  0  0  0  0  0  0  0  0  0  0  0
    2.6401   -3.1891    0.0000 O   0  0  0  0  0  0  0  0  0  0  0  0
    0.7500   -1.2990    0.0000 N   0  0  0  0  0  0  0  0  0  0  0  0
    1.5000    0.0000    0.0000 C   0  0  0  0  0  0  0  0  0  0  0  0
    0.7500    1.2990    0.0000 C   0  0  0  0  0  0  0  0  0  0  0  0
   -0.7500    1.2990    0.0000 N   0  0  0  0  0  0  0  0  0  0  0  0
   -1.5000    0.0000    0.0000 C   0  0  0  0  0  0  0  0  0  0  0  0
   -0.7500   -1.2990    0.0000 C   0  0  0  0  0  0  0  0  0  0  0  0
  1  2  1  0
  2  3  1  0
  3  4  1  0
  4  5  2  0
  5  6  1  0
  6  7  2  0
  7  8  1  0
  8  9  1  0
  9 10  1  0
  9 11  1  0
  9 12  1  0
  8 13  2  0
  7 14  1  0
 14 15  2  0
 14 16  1  0
 16 17  1  0
 17 18  1  0
 18 19  1  0
 19 20  1  0
 21 20  1  6
 13  4  1  0
 21 16  1  0
 21  6  1  0
M  END
>  <assay_chembl_id>  (111) 
CHEMBL918966

>  <assay_description>  (111) 
Displacement of [3H]LSD from human recombinant 5HT2B expressed in HEK293E cells

>  <parent_molecule_chembl_id>  (111) 
CHEMBL374660

>  <canonical_smiles>  (111) 
CCOc1cc2c(c(C(F)(F)F)c1)C(=O)N1CCNC[C@@H]21

>  <standard_type>  (111) 
Ki

>  <standard_relation>  (111) 
=

>  <standard_value>  (111) 
1300.0

>  <standard_units>  (111) 
nM

>  <target_pref_name>  (111) 
Serotonin 2b (5-HT2b) receptor

>  <target_chembl_id>  (111) 
CHEMBL1833

>  <target_organism>  (111) 
Homo sapiens

>  <pchembl_median>  (111) 
6.23

$$$$
CHEMBL220211
     RDKit          2D

 20 22  0  0  0  0  0  0  0  0999 V2000
   -5.3245   -4.5559    0.0000 C   0  0  0  0  0  0  0  0  0  0  0  0
   -4.1110   -5.4376    0.0000 O   0  0  0  0  0  0  0  0  0  0  0  0
   -2.7406   -4.8275    0.0000 C   0  0  0  0  0  0  0  0  0  0  0  0
   -2.5838   -3.3357    0.0000 C   0  0  0  0  0  0  0  0  0  0  0  0
   -1.2135   -2.7256    0.0000 C   0  0  0  0  0  0  0  0  0  0  0  0
   -0.0000   -3.6073    0.0000 C   0  0  0  0  0  0  0  0  0  0  0  0
   -0.1568   -5.0991    0.0000 C   0  0  0  0  0  0  0  0  0  0  0  0
    1.0567   -5.9808    0.0000 C   0  0  0  0  0  0  0  0  0  0  0  0
    2.2703   -6.8624    0.0000 F   0  0  0  0  0  0  0  0  0  0  0  0
    0.1751   -7.1943    0.0000 F   0  0  0  0  0  0  0  0  0  0  0  0
    1.9384   -4.7672    0.0000 F   0  0  0  0  0  0  0  0  0  0  0  0
   -1.5271   -5.7092    0.0000 C   0  0  0  0  0  0  0  0  0  0  0  0
    1.2135   -2.7256    0.0000 C   0  0  0  0  0  0  0  0  0  0  0  0
    2.6401   -3.1891    0.0000 O   0  0  0  0  0  0  0  0  0  0  0  0
    0.7500   -1.2990    0.0000 N   0  0  0  0  0  0  0  0  0  0  0  0
    1.5000    0.0000    0.0000 C   0  0  0  0  0  0  0  0  0  0  0  0
    0.7500    1.2990    0.0000 C   0  0  0  0  0  0  0  0  0  0  0  0
   -0.7500    1.2990    0.0000 N   0  0  0  0  0  0  0  0  0  0  0  0
   -1.5000    0.0000    0.0000 C   0  0  0  0  0  0  0  0  0  0  0  0
   -0.7500   -1.2990    0.0000 C   0  0  0  0  0  0  0  0  0  0  0  0
  1  2  1  0
  2  3  1  0
  3  4  2  0
  4  5  1  0
  5  6  2  0
  6  7  1  0
  7  8  1  0
  8  9  1  0
  8 10  1  0
  8 11  1  0
  7 12  2  0
  6 13  1  0
 13 14  2  0
 13 15  1  0
 15 16  1  0
 16 17  1  0
 17 18  1  0
 18 19  1  0
 20 19  1  6
 12  3  1  0
 20 15  1  0
 20  5  1  0
M  END
>  <assay_chembl_id>  (112) 
CHEMBL918966

>  <assay_description>  (112) 
Displacement of [3H]LSD from human recombinant 5HT2B expressed in HEK293E cells

>  <parent_molecule_chembl_id>  (112) 
CHEMBL220211

>  <canonical_smiles>  (112) 
COc1cc2c(c(C(F)(F)F)c1)C(=O)N1CCNC[C@@H]21

>  <standard_type>  (112) 
Ki

>  <standard_relation>  (112) 
=

>  <standard_value>  (112) 
1090.0

>  <standard_units>  (112) 
nM

>  <target_pref_name>  (112) 
Serotonin 2b (5-HT2b) receptor

>  <target_chembl_id>  (112) 
CHEMBL1833

>  <target_organism>  (112) 
Homo sapiens

>  <pchembl_median>  (112) 
6.46

$$$$
CHEMBL374659
     RDKit          2D

 20 22  0  0  0  0  0  0  0  0999 V2000
   -2.6401   -3.1891    0.0000 O   0  0  0  0  0  0  0  0  0  0  0  0
   -1.2135   -2.7256    0.0000 C   0  0  0  0  0  0  0  0  0  0  0  0
   -0.0000   -3.6073    0.0000 C   0  0  0  0  0  0  0  0  0  0  0  0
    1.2135   -2.7256    0.0000 C   0  0  0  0  0  0  0  0  0  0  0  0
    2.5838   -3.3357    0.0000 C   0  0  0  0  0  0  0  0  0  0  0  0
    2.7406   -4.8275    0.0000 C   0  0  0  0  0  0  0  0  0  0  0  0
    4.1110   -5.4376    0.0000 C   0  0  0  0  0  0  0  0  0  0  0  0
    4.2677   -6.9294    0.0000 O   0  0  0  0  0  0  0  0  0  0  0  0
    1.5271   -5.7092    0.0000 C   0  0  0  0  0  0  0  0  0  0  0  0
    0.1568   -5.0991    0.0000 C   0  0  0  0  0  0  0  0  0  0  0  0
   -1.0567   -5.9808    0.0000 C   0  0  0  0  0  0  0  0  0  0  0  0
   -2.2703   -6.8624    0.0000 F   0  0  0  0  0  0  0  0  0  0  0  0
   -0.1751   -7.1943    0.0000 F   0  0  0  0  0  0  0  0  0  0  0  0
   -1.9384   -4.7672    0.0000 F   0  0  0  0  0  0  0  0  0  0  0  0
    0.7500   -1.2990    0.0000 C   0  0  0  0  0  0  0  0  0  0  0  0
    1.5000    0.0000    0.0000 C   0  0  0  0  0  0  0  0  0  0  0  0
    0.7500    1.2990    0.0000 N   0  0  0  0  0  0  0  0  0  0  0  0
   -0.7500    1.2990    0.0000 C   0  0  0  0  0  0  0  0  0  0  0  0
   -1.5000    0.0000    0.0000 C   0  0  0  0  0  0  0  0  0  0  0  0
   -0.7500   -1.2990    0.0000 N   0  0  0  0  0  0  0  0  0  0  0  0
  1  2  2  0
  2  3  1  0
  3  4  2  0
  4  5  1  0
  5  6  2  0
  6  7  1  0
  7  8  1  0
  6  9  1  0
  9 10  2  0
 10 11  1  0
 11 12  1  0
 11 13  1  0
 11 14  1  0
  4 15  1  0
 15 16  1  1
 16 17  1  0
 17 18  1  0
 18 19  1  0
 19 20  1  0
 20  2  1  0
 10  3  1  0
 20 15  1  0
M  END
>  <assay_chembl_id>  (113) 
CHEMBL918966

>  <assay_description>  (113) 
Displacement of [3H]LSD from human recombinant 5HT2B expressed in HEK293E cells

>  <parent_molecule_chembl_id>  (113) 
CHEMBL374659

>  <canonical_smiles>  (113) 
O=C1c2c(cc(CO)cc2C(F)(F)F)[C@@H]2CNCCN12

>  <standard_type>  (113) 
Ki

>  <standard_relation>  (113) 
=

>  <standard_value>  (113) 
470.0

>  <standard_units>  (113) 
nM

>  <target_pref_name>  (113) 
Serotonin 2b (5-HT2b) receptor

>  <target_chembl_id>  (113) 
CHEMBL1833

>  <target_organism>  (113) 
Homo sapiens

>  <pchembl_median>  (113) 
6.05

$$$$
CHEMBL716
     RDKit          2D

 27 30  0  0  0  0  0  0  0  0999 V2000
    7.7172  -13.9953    0.0000 O   0  0  0  0  0  0  0  0  0  0  0  0
    7.9408  -12.5121    0.0000 C   0  0  0  0  0  0  0  0  0  0  0  0
    6.7681  -11.5768    0.0000 C   0  0  0  0  0  0  0  0  0  0  0  0
    6.9916  -10.0936    0.0000 O   0  0  0  0  0  0  0  0  0  0  0  0
    5.8189   -9.1584    0.0000 C   0  0  0  0  0  0  0  0  0  0  0  0
    6.0424   -7.6751    0.0000 C   0  0  0  0  0  0  0  0  0  0  0  0
    4.8697   -6.7399    0.0000 N   0  0  0  0  0  0  0  0  0  0  0  0
    3.4734   -7.2879    0.0000 C   0  0  0  0  0  0  0  0  0  0  0  0
    2.3006   -6.3527    0.0000 C   0  0  0  0  0  0  0  0  0  0  0  0
    2.5242   -4.8694    0.0000 N   0  0  0  0  0  0  0  0  0  0  0  0
    1.3515   -3.9342    0.0000 C   0  0  0  0  0  0  0  0  0  0  0  0
    1.6852   -2.4718    0.0000 N   0  0  0  0  0  0  0  0  0  0  0  0
    0.7500   -1.2990    0.0000 C   0  0  0  0  0  0  0  0  0  0  0  0
    1.5000    0.0000    0.0000 C   0  0  0  0  0  0  0  0  0  0  0  0
    0.7500    1.2990    0.0000 C   0  0  0  0  0  0  0  0  0  0  0  0
   -0.7500    1.2990    0.0000 C   0  0  0  0  0  0  0  0  0  0  0  0
   -1.5000    0.0000    0.0000 C   0  0  0  0  0  0  0  0  0  0  0  0
   -0.7500   -1.2990    0.0000 C   0  0  0  0  0  0  0  0  0  0  0  0
   -1.6852   -2.4718    0.0000 S   0  0  0  0  0  0  0  0  0  0  0  0
   -1.3515   -3.9342    0.0000 C   0  0  0  0  0  0  0  0  0  0  0  0
   -2.5908   -4.7792    0.0000 C   0  0  0  0  0  0  0  0  0  0  0  0
   -2.4787   -6.2750    0.0000 C   0  0  0  0  0  0  0  0  0  0  0  0
   -1.1273   -6.9258    0.0000 C   0  0  0  0  0  0  0  0  0  0  0  0
    0.1121   -6.0808    0.0000 C   0  0  0  0  0  0  0  0  0  0  0  0
    0.0000   -4.5850    0.0000 C   0  0  0  0  0  0  0  0  0  0  0  0
    3.9205   -4.3214    0.0000 C   0  0  0  0  0  0  0  0  0  0  0  0
    5.0933   -5.2566    0.0000 C   0  0  0  0  0  0  0  0  0  0  0  0
  1  2  1  0
  2  3  1  0
  3  4  1  0
  4  5  1  0
  5  6  1  0
  6  7  1  0
  7  8  1  0
  8  9  1  0
  9 10  1  0
 10 11  1  0
 11 12  2  0
 12 13  1  0
 13 14  2  0
 14 15  1  0
 15 16  2  0
 16 17  1  0
 17 18  2  0
 18 19  1  0
 19 20  1  0
 20 21  2  0
 21 22  1  0
 22 23  2  0
 23 24  1  0
 24 25  2  0
 10 26  1  0
 26 27  1  0
 27  7  1  0
 25 11  1  0
 18 13  1  0
 25 20  1  0
M  END
>  <assay_chembl_id>  (114) 
CHEMBL895622

>  <assay_description>  (114) 
Displacement of [3H]DOI from 5HT2B receptor expressed in CHO cells

>  <parent_molecule_chembl_id>  (114) 
CHEMBL716

>  <canonical_smiles>  (114) 
OCCOCCN1CCN(C2=Nc3ccccc3Sc3ccccc32)CC1

>  <standard_type>  (114) 
Ki

>  <standard_relation>  (114) 
=

>  <standard_value>  (114) 
251.19

>  <standard_units>  (114) 
nM

>  <target_pref_name>  (114) 
Serotonin 2b (5-HT2b) receptor

>  <target_chembl_id>  (114) 
CHEMBL1833

>  <target_organism>  (114) 
Homo sapiens

>  <pchembl_median>  (114) 
5.79

$$$$
CHEMBL708
     RDKit          2D

 28 32  0  0  0  0  0  0  0  0999 V2000
    2.7760    0.0000    0.0000 O   0  0  0  0  0  0  0  0  0  0  0  0
    1.2760    0.0000    0.0000 C   0  0  0  0  0  0  0  0  0  0  0  0
    0.3943    1.2135    0.0000 C   0  0  0  0  0  0  0  0  0  0  0  0
   -1.0323    0.7500    0.0000 C   0  0  0  0  0  0  0  0  0  0  0  0
   -2.3313    1.5000    0.0000 C   0  0  0  0  0  0  0  0  0  0  0  0
   -3.6304    0.7500    0.0000 C   0  0  0  0  0  0  0  0  0  0  0  0
   -4.9294    1.5000    0.0000 C   0  0  0  0  0  0  0  0  0  0  0  0
   -4.9294    3.0000    0.0000 C   0  0  0  0  0  0  0  0  0  0  0  0
   -6.2284    3.7500    0.0000 N   0  0  0  0  0  0  0  0  0  0  0  0
   -6.2284    5.2500    0.0000 C   0  0  0  0  0  0  0  0  0  0  0  0
   -7.5275    6.0000    0.0000 C   0  0  0  0  0  0  0  0  0  0  0  0
   -8.8265    5.2500    0.0000 N   0  0  0  0  0  0  0  0  0  0  0  0
  -10.1256    6.0000    0.0000 C   0  0  0  0  0  0  0  0  0  0  0  0
  -11.4959    5.3899    0.0000 N   0  0  0  0  0  0  0  0  0  0  0  0
  -12.4996    6.5046    0.0000 S   0  0  0  0  0  0  0  0  0  0  0  0
  -11.7496    7.8037    0.0000 C   0  0  0  0  0  0  0  0  0  0  0  0
  -12.2131    9.2302    0.0000 C   0  0  0  0  0  0  0  0  0  0  0  0
  -11.2094   10.3450    0.0000 C   0  0  0  0  0  0  0  0  0  0  0  0
   -9.7422   10.0331    0.0000 C   0  0  0  0  0  0  0  0  0  0  0  0
   -9.2786    8.6065    0.0000 C   0  0  0  0  0  0  0  0  0  0  0  0
  -10.2823    7.4918    0.0000 C   0  0  0  0  0  0  0  0  0  0  0  0
   -8.8265    3.7500    0.0000 C   0  0  0  0  0  0  0  0  0  0  0  0
   -7.5275    3.0000    0.0000 C   0  0  0  0  0  0  0  0  0  0  0  0
   -3.6304   -0.7500    0.0000 C   0  0  0  0  0  0  0  0  0  0  0  0
   -4.9294   -1.5000    0.0000 Cl  0  0  0  0  0  0  0  0  0  0  0  0
   -2.3313   -1.5000    0.0000 C   0  0  0  0  0  0  0  0  0  0  0  0
   -1.0323   -0.7500    0.0000 C   0  0  0  0  0  0  0  0  0  0  0  0
    0.3943   -1.2135    0.0000 N   0  0  0  0  0  0  0  0  0  0  0  0
  1  2  2  0
  2  3  1  0
  3  4  1  0
  4  5  2  0
  5  6  1  0
  6  7  1  0
  7  8  1  0
  8  9  1  0
  9 10  1  0
 10 11  1  0
 11 12  1  0
 12 13  1  0
 13 14  2  0
 14 15  1  0
 15 16  1  0
 16 17  2  0
 17 18  1  0
 18 19  2  0
 19 20  1  0
 20 21  2  0
 12 22  1  0
 22 23  1  0
  6 24  2  0
 24 25  1  0
 24 26  1  0
 26 27  2  0
 27 28  1  0
 28  2  1  0
 27  4  1  0
 23  9  1  0
 21 13  1  0
 21 16  1  0
M  END
>  <assay_chembl_id>  (115) 
CHEMBL895621

>  <assay_description>  (115) 
Displacement of [3H]LSD from 5HT2B receptor expressed in CHO cells

>  <parent_molecule_chembl_id>  (115) 
CHEMBL708

>  <canonical_smiles>  (115) 
O=C1Cc2cc(CCN3CCN(c4nsc5ccccc45)CC3)c(Cl)cc2N1

>  <standard_type>  (115) 
Ki

>  <standard_relation>  (115) 
=

>  <standard_value>  (115) 
1.585

>  <standard_units>  (115) 
nM

>  <target_pref_name>  (115) 
Serotonin 2b (5-HT2b) receptor

>  <target_chembl_id>  (115) 
CHEMBL1833

>  <target_organism>  (115) 
Homo sapiens

>  <pchembl_median>  (115) 
5.61

$$$$
CHEMBL243712
     RDKit          2D

 25 26  0  0  0  0  0  0  0  0999 V2000
   -3.2127   -5.8491    0.0000 C   0  0  0  0  0  0  0  0  0  0  0  0
   -1.7455   -5.5373    0.0000 C   0  0  0  0  0  0  0  0  0  0  0  0
   -0.7418   -6.6520    0.0000 N   0  0  0  0  0  0  0  0  0  0  0  0
   -1.0537   -8.1192    0.0000 C   0  0  0  0  0  0  0  0  0  0  0  0
    0.2454   -8.8692    0.0000 C   0  0  0  0  0  0  0  0  0  0  0  0
    1.3601   -7.8655    0.0000 C   0  0  0  0  0  0  0  0  0  0  0  0
    0.7500   -6.4952    0.0000 C   0  0  0  0  0  0  0  0  0  0  0  0
    1.5000   -5.1962    0.0000 C   0  0  0  0  0  0  0  0  0  0  0  0
    0.7500   -3.8971    0.0000 N   0  0  0  0  0  0  0  0  0  0  0  0
    1.5000   -2.5981    0.0000 C   0  0  0  0  0  0  0  0  0  0  0  0
    3.0000   -2.5981    0.0000 O   0  0  0  0  0  0  0  0  0  0  0  0
    0.7500   -1.2990    0.0000 C   0  0  0  0  0  0  0  0  0  0  0  0
    1.5000    0.0000    0.0000 C   0  0  0  0  0  0  0  0  0  0  0  0
    0.7500    1.2990    0.0000 C   0  0  0  0  0  0  0  0  0  0  0  0
    1.5000    2.5981    0.0000 S   0  0  0  0  0  0  0  0  0  0  0  0
    0.2010    3.3481    0.0000 O   0  0  0  0  0  0  0  0  0  0  0  0
    2.7990    1.8481    0.0000 O   0  0  0  0  0  0  0  0  0  0  0  0
    2.2500    3.8971    0.0000 C   0  0  0  0  0  0  0  0  0  0  0  0
    1.5000    5.1962    0.0000 C   0  0  0  0  0  0  0  0  0  0  0  0
   -0.7500    1.2990    0.0000 C   0  0  0  0  0  0  0  0  0  0  0  0
   -1.5000    2.5981    0.0000 N   0  0  0  0  0  0  0  0  0  0  0  0
   -1.5000    0.0000    0.0000 C   0  0  0  0  0  0  0  0  0  0  0  0
   -0.7500   -1.2990    0.0000 C   0  0  0  0  0  0  0  0  0  0  0  0
   -1.5000   -2.5981    0.0000 O   0  0  0  0  0  0  0  0  0  0  0  0
   -3.0000   -2.5981    0.0000 C   0  0  0  0  0  0  0  0  0  0  0  0
  1  2  1  0
  2  3  1  0
  3  4  1  0
  4  5  1  0
  5  6  1  0
  6  7  1  0
  7  8  1  0
  8  9  1  0
  9 10  1  0
 10 11  2  0
 10 12  1  0
 12 13  2  0
 13 14  1  0
 14 15  1  0
 15 16  2  0
 15 17  2  0
 15 18  1  0
 18 19  1  0
 14 20  2  0
 20 21  1  0
 20 22  1  0
 22 23  2  0
 23 24  1  0
 24 25  1  0
  7  3  1  0
 23 12  1  0
M  END
>  <assay_chembl_id>  (116) 
CHEMBL895622

>  <assay_description>  (116) 
Displacement of [3H]DOI from 5HT2B receptor expressed in CHO cells

>  <parent_molecule_chembl_id>  (116) 
CHEMBL243712

>  <canonical_smiles>  (116) 
CCN1CCCC1CNC(=O)c1cc(S(=O)(=O)CC)c(N)cc1OC

>  <standard_type>  (116) 
Ki

>  <standard_relation>  (116) 
=

>  <standard_value>  (116) 
316.23

>  <standard_units>  (116) 
nM

>  <target_pref_name>  (116) 
Serotonin 2b (5-HT2b) receptor

>  <target_chembl_id>  (116) 
CHEMBL1833

>  <target_organism>  (116) 
Homo sapiens

>  <pchembl_median>  (116) 
6.01

$$$$
CHEMBL71
     RDKit          2D

 21 23  0  0  0  0  0  0  0  0999 V2000
    7.5000   -5.1962    0.0000 C   0  0  0  0  0  0  0  0  0  0  0  0
    6.0000   -5.1962    0.0000 N   0  0  0  0  0  0  0  0  0  0  0  0
    5.2500   -6.4952    0.0000 C   0  0  0  0  0  0  0  0  0  0  0  0
    5.2500   -3.8971    0.0000 C   0  0  0  0  0  0  0  0  0  0  0  0
    3.7500   -3.8971    0.0000 C   0  0  0  0  0  0  0  0  0  0  0  0
    3.0000   -2.5981    0.0000 C   0  0  0  0  0  0  0  0  0  0  0  0
    1.5000   -2.5981    0.0000 N   0  0  0  0  0  0  0  0  0  0  0  0
    0.7500   -1.2990    0.0000 C   0  0  0  0  0  0  0  0  0  0  0  0
    1.5000    0.0000    0.0000 C   0  0  0  0  0  0  0  0  0  0  0  0
    0.7500    1.2990    0.0000 C   0  0  0  0  0  0  0  0  0  0  0  0
   -0.7500    1.2990    0.0000 C   0  0  0  0  0  0  0  0  0  0  0  0
   -1.5000    0.0000    0.0000 C   0  0  0  0  0  0  0  0  0  0  0  0
   -0.7500   -1.2990    0.0000 C   0  0  0  0  0  0  0  0  0  0  0  0
   -1.5000   -2.5981    0.0000 S   0  0  0  0  0  0  0  0  0  0  0  0
   -0.7500   -3.8971    0.0000 C   0  0  0  0  0  0  0  0  0  0  0  0
   -1.5000   -5.1962    0.0000 C   0  0  0  0  0  0  0  0  0  0  0  0
   -0.7500   -6.4952    0.0000 C   0  0  0  0  0  0  0  0  0  0  0  0
    0.7500   -6.4952    0.0000 C   0  0  0  0  0  0  0  0  0  0  0  0
    1.5000   -7.7942    0.0000 Cl  0  0  0  0  0  0  0  0  0  0  0  0
    1.5000   -5.1962    0.0000 C   0  0  0  0  0  0  0  0  0  0  0  0
    0.7500   -3.8971    0.0000 C   0  0  0  0  0  0  0  0  0  0  0  0
  1  2  1  0
  2  3  1  0
  2  4  1  0
  4  5  1  0
  5  6  1  0
  6  7  1  0
  7  8  1  0
  8  9  2  0
  9 10  1  0
 10 11  2  0
 11 12  1  0
 12 13  2  0
 13 14  1  0
 14 15  1  0
 15 16  2  0
 16 17  1  0
 17 18  2  0
 18 19  1  0
 18 20  1  0
 20 21  2  0
 21  7  1  0
 13  8  1  0
 21 15  1  0
M  END
>  <assay_chembl_id>  (117) 
CHEMBL895622

>  <assay_description>  (117) 
Displacement of [3H]DOI from 5HT2B receptor expressed in CHO cells

>  <parent_molecule_chembl_id>  (117) 
CHEMBL71

>  <canonical_smiles>  (117) 
CN(C)CCCN1c2ccccc2Sc2ccc(Cl)cc21

>  <standard_type>  (117) 
Ki

>  <standard_relation>  (117) 
=

>  <standard_value>  (117) 
39.81

>  <standard_units>  (117) 
nM

>  <target_pref_name>  (117) 
Serotonin 2b (5-HT2b) receptor

>  <target_chembl_id>  (117) 
CHEMBL1833

>  <target_organism>  (117) 
Homo sapiens

>  <pchembl_median>  (117) 
6.43

$$$$
CHEMBL131495
     RDKit          2D

 31 35  0  0  0  0  0  0  0  0999 V2000
    2.6401   -3.1891    0.0000 O   0  0  0  0  0  0  0  0  0  0  0  0
    1.2135   -2.7256    0.0000 C   0  0  0  0  0  0  0  0  0  0  0  0
    0.7500   -1.2990    0.0000 C   0  0  0  0  0  0  0  0  0  0  0  0
    1.5000    0.0000    0.0000 C   0  0  0  0  0  0  0  0  0  0  0  0
    0.7500    1.2990    0.0000 C   0  0  0  0  0  0  0  0  0  0  0  0
   -0.7500    1.2990    0.0000 C   0  0  0  0  0  0  0  0  0  0  0  0
   -1.5000    0.0000    0.0000 C   0  0  0  0  0  0  0  0  0  0  0  0
   -0.7500   -1.2990    0.0000 C   0  0  0  0  0  0  0  0  0  0  0  0
   -1.2135   -2.7256    0.0000 C   0  0  0  0  0  0  0  0  0  0  0  0
   -2.6401   -3.1891    0.0000 O   0  0  0  0  0  0  0  0  0  0  0  0
   -0.0000   -3.6073    0.0000 N   0  0  0  0  0  0  0  0  0  0  0  0
   -0.0000   -5.1073    0.0000 C   0  0  0  0  0  0  0  0  0  0  0  0
   -1.2990   -5.8573    0.0000 C   0  0  0  0  0  0  0  0  0  0  0  0
   -1.2990   -7.3573    0.0000 C   0  0  0  0  0  0  0  0  0  0  0  0
   -2.5981   -8.1073    0.0000 C   0  0  0  0  0  0  0  0  0  0  0  0
   -2.5981   -9.6073    0.0000 N   0  0  0  0  0  0  0  0  0  0  0  0
   -3.8971  -10.3573    0.0000 C   0  0  0  0  0  0  0  0  0  0  0  0
   -3.8971  -11.8573    0.0000 C   0  0  0  0  0  0  0  0  0  0  0  0
   -2.5981  -12.6073    0.0000 C   0  0  0  0  0  0  0  0  0  0  0  0
   -2.5981  -14.1073    0.0000 C   0  0  0  0  0  0  0  0  0  0  0  0
   -1.3846  -14.9890    0.0000 C   0  0  0  0  0  0  0  0  0  0  0  0
   -1.8481  -16.4156    0.0000 N   0  0  0  0  0  0  0  0  0  0  0  0
   -3.3481  -16.4156    0.0000 C   0  0  0  0  0  0  0  0  0  0  0  0
   -4.3518  -17.5303    0.0000 C   0  0  0  0  0  0  0  0  0  0  0  0
   -5.8190  -17.2184    0.0000 C   0  0  0  0  0  0  0  0  0  0  0  0
   -6.2825  -15.7918    0.0000 C   0  0  0  0  0  0  0  0  0  0  0  0
   -7.7497  -15.4800    0.0000 F   0  0  0  0  0  0  0  0  0  0  0  0
   -5.2788  -14.6771    0.0000 C   0  0  0  0  0  0  0  0  0  0  0  0
   -3.8116  -14.9890    0.0000 C   0  0  0  0  0  0  0  0  0  0  0  0
   -1.2990  -11.8573    0.0000 C   0  0  0  0  0  0  0  0  0  0  0  0
   -1.2990  -10.3573    0.0000 C   0  0  0  0  0  0  0  0  0  0  0  0
  1  2  2  0
  2  3  1  0
  3  4  2  0
  4  5  1  0
  5  6  2  0
  6  7  1  0
  7  8  2  0
  8  9  1  0
  9 10  2  0
  9 11  1  0
 11 12  1  0
 12 13  1  0
 13 14  1  0
 14 15  1  0
 15 16  1  0
 16 17  1  0
 17 18  1  0
 18 19  2  0
 19 20  1  0
 20 21  2  0
 21 22  1  0
 22 23  1  0
 23 24  2  0
 24 25  1  0
 25 26  2  0
 26 27  1  0
 26 28  1  0
 28 29  2  0
 19 30  1  0
 30 31  1  0
 11  2  1  0
 31 16  1  0
  8  3  1  0
 29 20  1  0
 29 23  1  0
M  END
>  <assay_chembl_id>  (118) 
CHEMBL895621

>  <assay_description>  (118) 
Displacement of [3H]LSD from 5HT2B receptor expressed in CHO cells

>  <parent_molecule_chembl_id>  (118) 
CHEMBL131495

>  <canonical_smiles>  (118) 
O=C1c2ccccc2C(=O)N1CCCCN1CC=C(c2c[nH]c3ccc(F)cc23)CC1

>  <standard_type>  (118) 
Ki

>  <standard_relation>  (118) 
=

>  <standard_value>  (118) 
1.585

>  <standard_units>  (118) 
nM

>  <target_pref_name>  (118) 
Serotonin 2b (5-HT2b) receptor

>  <target_chembl_id>  (118) 
CHEMBL1833

>  <target_organism>  (118) 
Homo sapiens

>  <pchembl_median>  (118) 
5.78

$$$$
CHEMBL85
     RDKit          2D

 30 34  0  0  0  0  0  0  0  0999 V2000
   -1.5000   -5.1962    0.0000 C   0  0  0  0  0  0  0  0  0  0  0  0
   -0.7500   -3.8971    0.0000 C   0  0  0  0  0  0  0  0  0  0  0  0
   -1.5000   -2.5981    0.0000 N   0  0  0  0  0  0  0  0  0  0  0  0
   -0.7500   -1.2990    0.0000 C   0  0  0  0  0  0  0  0  0  0  0  0
    0.7500   -1.2990    0.0000 N   0  0  0  0  0  0  0  0  0  0  0  0
    1.5000   -2.5981    0.0000 C   0  0  0  0  0  0  0  0  0  0  0  0
    3.0000   -2.5981    0.0000 O   0  0  0  0  0  0  0  0  0  0  0  0
    0.7500   -3.8971    0.0000 C   0  0  0  0  0  0  0  0  0  0  0  0
    1.5000   -5.1962    0.0000 C   0  0  0  0  0  0  0  0  0  0  0  0
    0.7500   -6.4952    0.0000 C   0  0  0  0  0  0  0  0  0  0  0  0
    1.5000   -7.7942    0.0000 N   0  0  0  0  0  0  0  0  0  0  0  0
    0.7500   -9.0933    0.0000 C   0  0  0  0  0  0  0  0  0  0  0  0
    1.5000  -10.3923    0.0000 C   0  0  0  0  0  0  0  0  0  0  0  0
    3.0000  -10.3923    0.0000 C   0  0  0  0  0  0  0  0  0  0  0  0
    3.7500  -11.6913    0.0000 C   0  0  0  0  0  0  0  0  0  0  0  0
    5.2418  -11.8481    0.0000 N   0  0  0  0  0  0  0  0  0  0  0  0
    5.5537  -13.3154    0.0000 O   0  0  0  0  0  0  0  0  0  0  0  0
    4.2546  -14.0654    0.0000 C   0  0  0  0  0  0  0  0  0  0  0  0
    3.9427  -15.5326    0.0000 C   0  0  0  0  0  0  0  0  0  0  0  0
    2.5162  -15.9961    0.0000 C   0  0  0  0  0  0  0  0  0  0  0  0
    2.2043  -17.4633    0.0000 F   0  0  0  0  0  0  0  0  0  0  0  0
    1.4014  -14.9924    0.0000 C   0  0  0  0  0  0  0  0  0  0  0  0
    1.7133  -13.5252    0.0000 C   0  0  0  0  0  0  0  0  0  0  0  0
    3.1399  -13.0617    0.0000 C   0  0  0  0  0  0  0  0  0  0  0  0
    3.7500   -9.0933    0.0000 C   0  0  0  0  0  0  0  0  0  0  0  0
    3.0000   -7.7942    0.0000 C   0  0  0  0  0  0  0  0  0  0  0  0
    1.5000    0.0000    0.0000 C   0  0  0  0  0  0  0  0  0  0  0  0
    0.7500    1.2990    0.0000 C   0  0  0  0  0  0  0  0  0  0  0  0
   -0.7500    1.2990    0.0000 C   0  0  0  0  0  0  0  0  0  0  0  0
   -1.5000    0.0000    0.0000 C   0  0  0  0  0  0  0  0  0  0  0  0
  1  2  1  0
  2  3  1  0
  3  4  2  0
  4  5  1  0
  5  6  1  0
  6  7  2  0
  6  8  1  0
  8  9  1  0
  9 10  1  0
 10 11  1  0
 11 12  1  0
 12 13  1  0
 13 14  1  0
 14 15  1  0
 15 16  2  0
 16 17  1  0
 17 18  1  0
 18 19  2  0
 19 20  1  0
 20 21  1  0
 20 22  2  0
 22 23  1  0
 23 24  2  0
 14 25  1  0
 25 26  1  0
  5 27  1  0
 27 28  1  0
 28 29  1  0
 29 30  1  0
  8  2  2  0
 26 11  1  0
 30  4  1  0
 24 15  1  0
 24 18  1  0
M  END
>  <assay_chembl_id>  (119) 
CHEMBL895621

>  <assay_description>  (119) 
Displacement of [3H]LSD from 5HT2B receptor expressed in CHO cells

>  <parent_molecule_chembl_id>  (119) 
CHEMBL85

>  <canonical_smiles>  (119) 
Cc1nc2n(c(=O)c1CCN1CCC(c3noc4cc(F)ccc34)CC1)CCCC2

>  <standard_type>  (119) 
Ki

>  <standard_relation>  (119) 
=

>  <standard_value>  (119) 
19.95

>  <standard_units>  (119) 
nM

>  <target_pref_name>  (119) 
Serotonin 2b (5-HT2b) receptor

>  <target_chembl_id>  (119) 
CHEMBL1833

>  <target_organism>  (119) 
Homo sapiens

>  <pchembl_median>  (119) 
5.57

$$$$
CHEMBL1112
     RDKit          2D

 30 33  0  0  0  0  0  0  0  0999 V2000
    3.0000    0.0000    0.0000 O   0  0  0  0  0  0  0  0  0  0  0  0
    1.5000    0.0000    0.0000 C   0  0  0  0  0  0  0  0  0  0  0  0
    0.7500   -1.2990    0.0000 C   0  0  0  0  0  0  0  0  0  0  0  0
   -0.7500   -1.2990    0.0000 C   0  0  0  0  0  0  0  0  0  0  0  0
   -1.5000    0.0000    0.0000 C   0  0  0  0  0  0  0  0  0  0  0  0
   -3.0000    0.0000    0.0000 C   0  0  0  0  0  0  0  0  0  0  0  0
   -3.7500    1.2990    0.0000 C   0  0  0  0  0  0  0  0  0  0  0  0
   -3.0000    2.5981    0.0000 C   0  0  0  0  0  0  0  0  0  0  0  0
   -3.7500    3.8971    0.0000 O   0  0  0  0  0  0  0  0  0  0  0  0
   -3.0000    5.1962    0.0000 C   0  0  0  0  0  0  0  0  0  0  0  0
   -3.7500    6.4952    0.0000 C   0  0  0  0  0  0  0  0  0  0  0  0
   -3.0000    7.7942    0.0000 C   0  0  0  0  0  0  0  0  0  0  0  0
   -3.7500    9.0933    0.0000 C   0  0  0  0  0  0  0  0  0  0  0  0
   -3.0000   10.3923    0.0000 N   0  0  0  0  0  0  0  0  0  0  0  0
   -1.5000   10.3923    0.0000 C   0  0  0  0  0  0  0  0  0  0  0  0
   -0.7500   11.6913    0.0000 C   0  0  0  0  0  0  0  0  0  0  0  0
   -1.5000   12.9904    0.0000 N   0  0  0  0  0  0  0  0  0  0  0  0
   -0.7500   14.2894    0.0000 C   0  0  0  0  0  0  0  0  0  0  0  0
    0.7500   14.2894    0.0000 C   0  0  0  0  0  0  0  0  0  0  0  0
    1.5000   15.5885    0.0000 C   0  0  0  0  0  0  0  0  0  0  0  0
    0.7500   16.8875    0.0000 C   0  0  0  0  0  0  0  0  0  0  0  0
   -0.7500   16.8875    0.0000 C   0  0  0  0  0  0  0  0  0  0  0  0
   -1.5000   18.1865    0.0000 Cl  0  0  0  0  0  0  0  0  0  0  0  0
   -1.5000   15.5885    0.0000 C   0  0  0  0  0  0  0  0  0  0  0  0
   -3.0000   15.5885    0.0000 Cl  0  0  0  0  0  0  0  0  0  0  0  0
   -3.0000   12.9904    0.0000 C   0  0  0  0  0  0  0  0  0  0  0  0
   -3.7500   11.6913    0.0000 C   0  0  0  0  0  0  0  0  0  0  0  0
   -1.5000    2.5981    0.0000 C   0  0  0  0  0  0  0  0  0  0  0  0
   -0.7500    1.2990    0.0000 C   0  0  0  0  0  0  0  0  0  0  0  0
    0.7500    1.2990    0.0000 N   0  0  0  0  0  0  0  0  0  0  0  0
  1  2  2  0
  2  3  1  0
  3  4  1  0
  4  5  1  0
  5  6  2  0
  6  7  1  0
  7  8  2  0
  8  9  1  0
  9 10  1  0
 10 11  1  0
 11 12  1  0
 12 13  1  0
 13 14  1  0
 14 15  1  0
 15 16  1  0
 16 17  1  0
 17 18  1  0
 18 19  2  0
 19 20  1  0
 20 21  2  0
 21 22  1  0
 22 23  1  0
 22 24  2  0
 24 25  1  0
 17 26  1  0
 26 27  1  0
  8 28  1  0
 28 29  2  0
 29 30  1  0
 30  2  1  0
 29  5  1  0
 27 14  1  0
 24 18  1  0
M  END
>  <assay_chembl_id>  (120) 
CHEMBL895621

>  <assay_description>  (120) 
Displacement of [3H]LSD from 5HT2B receptor expressed in CHO cells

>  <parent_molecule_chembl_id>  (120) 
CHEMBL1112

>  <canonical_smiles>  (120) 
O=C1CCc2ccc(OCCCCN3CCN(c4cccc(Cl)c4Cl)CC3)cc2N1

>  <standard_type>  (120) 
Ki

>  <standard_relation>  (120) 
=

>  <standard_value>  (120) 
1.259

>  <standard_units>  (120) 
nM

>  <target_pref_name>  (120) 
Serotonin 2b (5-HT2b) receptor

>  <target_chembl_id>  (120) 
CHEMBL1833

>  <target_organism>  (120) 
Homo sapiens

>  <pchembl_median>  (120) 
6.11

$$$$
CHEMBL715
     RDKit          2D

 22 25  0  0  0  0  0  0  0  0999 V2000
    2.3281   -7.6907    0.0000 C   0  0  0  0  0  0  0  0  0  0  0  0
    1.6772   -6.3393    0.0000 C   0  0  0  0  0  0  0  0  0  0  0  0
    0.2013   -6.0714    0.0000 C   0  0  0  0  0  0  0  0  0  0  0  0
    0.0000   -4.5850    0.0000 C   0  0  0  0  0  0  0  0  0  0  0  0
    1.3515   -3.9342    0.0000 C   0  0  0  0  0  0  0  0  0  0  0  0
    2.3880   -5.0184    0.0000 S   0  0  0  0  0  0  0  0  0  0  0  0
    1.6852   -2.4718    0.0000 N   0  0  0  0  0  0  0  0  0  0  0  0
    0.7500   -1.2990    0.0000 C   0  0  0  0  0  0  0  0  0  0  0  0
    1.5000    0.0000    0.0000 C   0  0  0  0  0  0  0  0  0  0  0  0
    0.7500    1.2990    0.0000 C   0  0  0  0  0  0  0  0  0  0  0  0
   -0.7500    1.2990    0.0000 C   0  0  0  0  0  0  0  0  0  0  0  0
   -1.5000    0.0000    0.0000 C   0  0  0  0  0  0  0  0  0  0  0  0
   -0.7500   -1.2990    0.0000 C   0  0  0  0  0  0  0  0  0  0  0  0
   -1.6852   -2.4718    0.0000 N   0  0  0  0  0  0  0  0  0  0  0  0
   -1.3515   -3.9342    0.0000 C   0  0  0  0  0  0  0  0  0  0  0  0
   -2.5242   -4.8694    0.0000 N   0  0  0  0  0  0  0  0  0  0  0  0
   -3.9205   -4.3214    0.0000 C   0  0  0  0  0  0  0  0  0  0  0  0
   -5.0933   -5.2566    0.0000 C   0  0  0  0  0  0  0  0  0  0  0  0
   -4.8697   -6.7399    0.0000 N   0  0  0  0  0  0  0  0  0  0  0  0
   -6.0424   -7.6751    0.0000 C   0  0  0  0  0  0  0  0  0  0  0  0
   -3.4734   -7.2879    0.0000 C   0  0  0  0  0  0  0  0  0  0  0  0
   -2.3006   -6.3527    0.0000 C   0  0  0  0  0  0  0  0  0  0  0  0
  1  2  1  0
  2  3  2  0
  3  4  1  0
  4  5  2  0
  5  6  1  0
  5  7  1  0
  7  8  1  0
  8  9  2  0
  9 10  1  0
 10 11  2  0
 11 12  1  0
 12 13  2  0
 13 14  1  0
 14 15  2  0
 15 16  1  0
 16 17  1  0
 17 18  1  0
 18 19  1  0
 19 20  1  0
 19 21  1  0
 21 22  1  0
  6  2  1  0
 13  8  1  0
 22 16  1  0
 15  4  1  0
M  END
>  <assay_chembl_id>  (121) 
CHEMBL895621

>  <assay_description>  (121) 
Displacement of [3H]LSD from 5HT2B receptor expressed in CHO cells

>  <parent_molecule_chembl_id>  (121) 
CHEMBL715

>  <canonical_smiles>  (121) 
Cc1cc2c(s1)Nc1ccccc1N=C2N1CCN(C)CC1

>  <standard_type>  (121) 
Ki

>  <standard_relation>  (121) 
=

>  <standard_value>  (121) 
6.31

>  <standard_units>  (121) 
nM

>  <target_pref_name>  (121) 
Serotonin 2b (5-HT2b) receptor

>  <target_chembl_id>  (121) 
CHEMBL1833

>  <target_organism>  (121) 
Homo sapiens

>  <pchembl_median>  (121) 
5.87

$$$$
CHEMBL42
     RDKit          2D

 23 26  0  0  0  0  0  0  0  0999 V2000
   -7.5348   -1.1367    0.0000 C   0  0  0  0  0  0  0  0  0  0  0  0
   -6.0724   -1.4704    0.0000 N   0  0  0  0  0  0  0  0  0  0  0  0
   -5.0522   -0.3709    0.0000 C   0  0  0  0  0  0  0  0  0  0  0  0
   -3.5898   -0.7046    0.0000 C   0  0  0  0  0  0  0  0  0  0  0  0
   -3.1476   -2.1380    0.0000 N   0  0  0  0  0  0  0  0  0  0  0  0
   -1.6852   -2.4718    0.0000 C   0  0  0  0  0  0  0  0  0  0  0  0
   -1.3515   -3.9342    0.0000 N   0  0  0  0  0  0  0  0  0  0  0  0
   -0.0000   -4.5850    0.0000 C   0  0  0  0  0  0  0  0  0  0  0  0
   -0.1121   -6.0808    0.0000 C   0  0  0  0  0  0  0  0  0  0  0  0
    1.1273   -6.9258    0.0000 C   0  0  0  0  0  0  0  0  0  0  0  0
    1.0152   -8.4216    0.0000 Cl  0  0  0  0  0  0  0  0  0  0  0  0
    2.4787   -6.2750    0.0000 C   0  0  0  0  0  0  0  0  0  0  0  0
    2.5908   -4.7792    0.0000 C   0  0  0  0  0  0  0  0  0  0  0  0
    1.3515   -3.9342    0.0000 C   0  0  0  0  0  0  0  0  0  0  0  0
    1.6852   -2.4718    0.0000 N   0  0  0  0  0  0  0  0  0  0  0  0
    0.7500   -1.2990    0.0000 C   0  0  0  0  0  0  0  0  0  0  0  0
    1.5000    0.0000    0.0000 C   0  0  0  0  0  0  0  0  0  0  0  0
    0.7500    1.2990    0.0000 C   0  0  0  0  0  0  0  0  0  0  0  0
   -0.7500    1.2990    0.0000 C   0  0  0  0  0  0  0  0  0  0  0  0
   -1.5000    0.0000    0.0000 C   0  0  0  0  0  0  0  0  0  0  0  0
   -0.7500   -1.2990    0.0000 C   0  0  0  0  0  0  0  0  0  0  0  0
   -4.1679   -3.2376    0.0000 C   0  0  0  0  0  0  0  0  0  0  0  0
   -5.6303   -2.9038    0.0000 C   0  0  0  0  0  0  0  0  0  0  0  0
  1  2  1  0
  2  3  1  0
  3  4  1  0
  4  5  1  0
  5  6  1  0
  6  7  2  0
  7  8  1  0
  8  9  2  0
  9 10  1  0
 10 11  1  0
 10 12  2  0
 12 13  1  0
 13 14  2  0
 14 15  1  0
 15 16  1  0
 16 17  2  0
 17 18  1  0
 18 19  2  0
 19 20  1  0
 20 21  2  0
  5 22  1  0
 22 23  1  0
 23  2  1  0
 21  6  1  0
 14  8  1  0
 21 16  1  0
M  END
>  <assay_chembl_id>  (122) 
CHEMBL895621

>  <assay_description>  (122) 
Displacement of [3H]LSD from 5HT2B receptor expressed in CHO cells

>  <parent_molecule_chembl_id>  (122) 
CHEMBL42

>  <canonical_smiles>  (122) 
CN1CCN(C2=Nc3cc(Cl)ccc3Nc3ccccc32)CC1

>  <standard_type>  (122) 
Ki

>  <standard_relation>  (122) 
=

>  <standard_value>  (122) 
3.162

>  <standard_units>  (122) 
nM

>  <target_pref_name>  (122) 
Serotonin 2b (5-HT2b) receptor

>  <target_chembl_id>  (122) 
CHEMBL1833

>  <target_organism>  (122) 
Homo sapiens

>  <pchembl_median>  (122) 
5.95

$$$$
CHEMBL196514
     RDKit          2D

 31 35  0  0  0  0  0  0  0  0999 V2000
   -1.5000   -5.1962    0.0000 C   0  0  0  0  0  0  0  0  0  0  0  0
   -0.7500   -3.8971    0.0000 C   0  0  0  0  0  0  0  0  0  0  0  0
   -1.5000   -2.5981    0.0000 O   0  0  0  0  0  0  0  0  0  0  0  0
   -0.7500   -1.2990    0.0000 C   0  0  0  0  0  0  0  0  0  0  0  0
    0.7500   -1.2990    0.0000 C   0  0  0  0  0  0  0  0  0  0  0  0
    1.5000    0.0000    0.0000 C   0  0  0  0  0  0  0  0  0  0  0  0
    0.7500    1.2990    0.0000 C   0  0  0  0  0  0  0  0  0  0  0  0
   -0.7500    1.2990    0.0000 C   0  0  0  0  0  0  0  0  0  0  0  0
   -1.5000    0.0000    0.0000 C   0  0  0  0  0  0  0  0  0  0  0  0
   -3.0000    0.0000    0.0000 N   0  0  0  0  0  0  0  0  0  0  0  0
   -3.7500    1.2990    0.0000 C   0  0  0  0  0  0  0  0  0  0  0  0
   -5.2500    1.2990    0.0000 C   0  0  0  0  0  0  0  0  0  0  0  0
   -6.0000    0.0000    0.0000 N   0  0  0  0  0  0  0  0  0  0  0  0
   -7.5000    0.0000    0.0000 C   0  0  0  0  0  0  0  0  0  0  0  0
   -8.2500    1.2990    0.0000 C   0  0  0  0  0  0  0  0  0  0  0  0
   -9.7500    1.2990    0.0000 C   0  0  0  0  0  0  0  0  0  0  0  0
  -10.5000    2.5981    0.0000 C   0  0  0  0  0  0  0  0  0  0  0  0
   -9.8899    3.9684    0.0000 C   0  0  0  0  0  0  0  0  0  0  0  0
  -11.0046    4.9721    0.0000 N   0  0  0  0  0  0  0  0  0  0  0  0
  -12.3037    4.2221    0.0000 C   0  0  0  0  0  0  0  0  0  0  0  0
  -13.7302    4.6856    0.0000 C   0  0  0  0  0  0  0  0  0  0  0  0
  -14.8450    3.6819    0.0000 C   0  0  0  0  0  0  0  0  0  0  0  0
  -14.5331    2.2147    0.0000 C   0  0  0  0  0  0  0  0  0  0  0  0
  -15.6478    1.2110    0.0000 F   0  0  0  0  0  0  0  0  0  0  0  0
  -13.1065    1.7512    0.0000 C   0  0  0  0  0  0  0  0  0  0  0  0
  -11.9918    2.7549    0.0000 C   0  0  0  0  0  0  0  0  0  0  0  0
   -5.2500   -1.2990    0.0000 C   0  0  0  0  0  0  0  0  0  0  0  0
   -3.7500   -1.2990    0.0000 C   0  0  0  0  0  0  0  0  0  0  0  0
    1.5000   -2.5981    0.0000 N   0  0  0  0  0  0  0  0  0  0  0  0
    0.7500   -3.8971    0.0000 C   0  0  0  0  0  0  0  0  0  0  0  0
    1.5000   -5.1962    0.0000 O   0  0  0  0  0  0  0  0  0  0  0  0
  2  1  1  1
  2  3  1  0
  3  4  1  0
  4  5  2  0
  5  6  1  0
  6  7  2  0
  7  8  1  0
  8  9  2  0
  9 10  1  0
 10 11  1  0
 11 12  1  0
 12 13  1  0
 13 14  1  0
 14 15  1  0
 15 16  1  0
 16 17  1  0
 17 18  2  0
 18 19  1  0
 19 20  1  0
 20 21  2  0
 21 22  1  0
 22 23  2  0
 23 24  1  0
 23 25  1  0
 25 26  2  0
 13 27  1  0
 27 28  1  0
  5 29  1  0
 29 30  1  0
 30 31  2  0
 30  2  1  0
  9  4  1  0
 28 10  1  0
 26 17  1  0
 26 20  1  0
M  END
>  <assay_chembl_id>  (123) 
CHEMBL895621

>  <assay_description>  (123) 
Displacement of [3H]LSD from 5HT2B receptor expressed in CHO cells

>  <parent_molecule_chembl_id>  (123) 
CHEMBL196514

>  <canonical_smiles>  (123) 
C[C@H]1Oc2c(cccc2N2CCN(CCCc3c[nH]c4ccc(F)cc34)CC2)NC1=O

>  <standard_type>  (123) 
Ki

>  <standard_relation>  (123) 
=

>  <standard_value>  (123) 
1.0

>  <standard_units>  (123) 
nM

>  <target_pref_name>  (123) 
Serotonin 2b (5-HT2b) receptor

>  <target_chembl_id>  (123) 
CHEMBL1833

>  <target_organism>  (123) 
Homo sapiens

>  <pchembl_median>  (123) 
6.0

$$$$
CHEMBL221692
     RDKit          2D

 30 34  0  0  0  0  0  0  0  0999 V2000
    5.2500  -11.6913    0.0000 F   0  0  0  0  0  0  0  0  0  0  0  0
    6.0000  -10.3923    0.0000 C   0  0  0  0  0  0  0  0  0  0  0  0
    5.2500   -9.0933    0.0000 C   0  0  0  0  0  0  0  0  0  0  0  0
    6.0000   -7.7942    0.0000 C   0  0  0  0  0  0  0  0  0  0  0  0
    7.5000   -7.7942    0.0000 C   0  0  0  0  0  0  0  0  0  0  0  0
    8.2500   -6.4952    0.0000 C   0  0  0  0  0  0  0  0  0  0  0  0
    9.7500   -6.4952    0.0000 C   0  0  0  0  0  0  0  0  0  0  0  0
   10.5000   -5.1962    0.0000 N   0  0  0  0  0  0  0  0  0  0  0  0
    9.7500   -3.8971    0.0000 C   0  0  0  0  0  0  0  0  0  0  0  0
    8.2500   -3.8971    0.0000 C   0  0  0  0  0  0  0  0  0  0  0  0
    7.5000   -2.5981    0.0000 C   0  0  0  0  0  0  0  0  0  0  0  0
    6.0000   -2.5981    0.0000 N   0  0  0  0  0  0  0  0  0  0  0  0
    5.2500   -1.2990    0.0000 C   0  0  0  0  0  0  0  0  0  0  0  0
    3.7500   -1.2990    0.0000 C   0  0  0  0  0  0  0  0  0  0  0  0
    3.0000   -2.5981    0.0000 N   0  0  0  0  0  0  0  0  0  0  0  0
    1.5000   -2.5981    0.0000 C   0  0  0  0  0  0  0  0  0  0  0  0
    0.7500   -3.8971    0.0000 C   0  0  0  0  0  0  0  0  0  0  0  0
   -0.7500   -3.8971    0.0000 C   0  0  0  0  0  0  0  0  0  0  0  0
   -1.5000   -2.5981    0.0000 C   0  0  0  0  0  0  0  0  0  0  0  0
   -0.7500   -1.2990    0.0000 C   0  0  0  0  0  0  0  0  0  0  0  0
    0.7500   -1.2990    0.0000 C   0  0  0  0  0  0  0  0  0  0  0  0
    1.5000    0.0000    0.0000 O   0  0  0  0  0  0  0  0  0  0  0  0
    0.7500    1.2990    0.0000 C   0  0  0  0  0  0  0  0  0  0  0  0
   -0.7500    1.2990    0.0000 C   0  0  0  0  0  0  0  0  0  0  0  0
   -1.5000    0.0000    0.0000 O   0  0  0  0  0  0  0  0  0  0  0  0
    3.7500   -3.8971    0.0000 C   0  0  0  0  0  0  0  0  0  0  0  0
    5.2500   -3.8971    0.0000 C   0  0  0  0  0  0  0  0  0  0  0  0
    7.5000   -5.1962    0.0000 C   0  0  0  0  0  0  0  0  0  0  0  0
    8.2500   -9.0933    0.0000 C   0  0  0  0  0  0  0  0  0  0  0  0
    7.5000  -10.3923    0.0000 C   0  0  0  0  0  0  0  0  0  0  0  0
  1  2  1  0
  2  3  2  0
  3  4  1  0
  4  5  2  0
  5  6  1  0
  6  7  2  0
  7  8  1  0
  8  9  2  0
  9 10  1  0
 10 11  1  0
 11 12  1  0
 12 13  1  0
 13 14  1  0
 14 15  1  0
 15 16  1  0
 16 17  2  0
 17 18  1  0
 18 19  2  0
 19 20  1  0
 20 21  2  0
 21 22  1  0
 22 23  1  0
 23 24  1  0
 24 25  1  0
 15 26  1  0
 26 27  1  0
 10 28  2  0
  5 29  1  0
 29 30  2  0
 30  2  1  0
 28  6  1  0
 27 12  1  0
 21 16  1  0
 25 20  1  0
M  END
>  <assay_chembl_id>  (124) 
CHEMBL895621

>  <assay_description>  (124) 
Displacement of [3H]LSD from 5HT2B receptor expressed in CHO cells

>  <parent_molecule_chembl_id>  (124) 
CHEMBL221692

>  <canonical_smiles>  (124) 
Fc1ccc(-c2cncc(CN3CCN(c4cccc5c4OCCO5)CC3)c2)cc1

>  <standard_type>  (124) 
Ki

>  <standard_relation>  (124) 
=

>  <standard_value>  (124) 
12.59

>  <standard_units>  (124) 
nM

>  <target_pref_name>  (124) 
Serotonin 2b (5-HT2b) receptor

>  <target_chembl_id>  (124) 
CHEMBL1833

>  <target_organism>  (124) 
Homo sapiens

>  <pchembl_median>  (124) 
6.54

$$$$
CHEMBL234947
     RDKit          2D

 33 37  0  0  0  0  0  0  0  0999 V2000
    4.8801  -11.2583    0.0000 C   0  0  0  0  0  0  0  0  0  0  0  0
    5.4902   -9.8880    0.0000 O   0  0  0  0  0  0  0  0  0  0  0  0
    4.6086   -8.6745    0.0000 C   0  0  0  0  0  0  0  0  0  0  0  0
    3.1168   -8.8313    0.0000 C   0  0  0  0  0  0  0  0  0  0  0  0
    2.2351   -7.6177    0.0000 C   0  0  0  0  0  0  0  0  0  0  0  0
    2.8452   -6.2474    0.0000 C   0  0  0  0  0  0  0  0  0  0  0  0
    1.9635   -5.0339    0.0000 N   0  0  0  0  0  0  0  0  0  0  0  0
    0.4635   -5.0339    0.0000 C   0  0  0  0  0  0  0  0  0  0  0  0
    0.0000   -3.6073    0.0000 C   0  0  0  0  0  0  0  0  0  0  0  0
    1.2135   -2.7256    0.0000 C   0  0  0  0  0  0  0  0  0  0  0  0
    0.7500   -1.2990    0.0000 C   0  0  0  0  0  0  0  0  0  0  0  0
    1.5000    0.0000    0.0000 C   0  0  0  0  0  0  0  0  0  0  0  0
    0.7500    1.2990    0.0000 C   0  0  0  0  0  0  0  0  0  0  0  0
    1.5000    2.5981    0.0000 Cl  0  0  0  0  0  0  0  0  0  0  0  0
   -0.7500    1.2990    0.0000 C   0  0  0  0  0  0  0  0  0  0  0  0
   -1.5000    2.5981    0.0000 Cl  0  0  0  0  0  0  0  0  0  0  0  0
   -1.5000    0.0000    0.0000 C   0  0  0  0  0  0  0  0  0  0  0  0
   -0.7500   -1.2990    0.0000 C   0  0  0  0  0  0  0  0  0  0  0  0
   -1.2135   -2.7256    0.0000 N   0  0  0  0  0  0  0  0  0  0  0  0
   -2.6401   -3.1891    0.0000 C   0  0  0  0  0  0  0  0  0  0  0  0
    2.4271   -3.6073    0.0000 C   0  0  0  0  0  0  0  0  0  0  0  0
    3.8536   -3.1438    0.0000 O   0  0  0  0  0  0  0  0  0  0  0  0
    4.3370   -6.0906    0.0000 C   0  0  0  0  0  0  0  0  0  0  0  0
    5.2187   -7.3041    0.0000 C   0  0  0  0  0  0  0  0  0  0  0  0
    6.7104   -7.1474    0.0000 O   0  0  0  0  0  0  0  0  0  0  0  0
    7.3206   -5.7770    0.0000 C   0  0  0  0  0  0  0  0  0  0  0  0
    8.8123   -5.6202    0.0000 C   0  0  0  0  0  0  0  0  0  0  0  0
    9.4224   -4.2499    0.0000 N   0  0  0  0  0  0  0  0  0  0  0  0
   10.9142   -4.0931    0.0000 C   0  0  0  0  0  0  0  0  0  0  0  0
   11.5243   -2.7228    0.0000 C   0  0  0  0  0  0  0  0  0  0  0  0
   10.6426   -1.5093    0.0000 C   0  0  0  0  0  0  0  0  0  0  0  0
    9.1509   -1.6661    0.0000 C   0  0  0  0  0  0  0  0  0  0  0  0
    8.5408   -3.0364    0.0000 C   0  0  0  0  0  0  0  0  0  0  0  0
  1  2  1  0
  2  3  1  0
  3  4  2  0
  4  5  1  0
  5  6  2  0
  6  7  1  0
  7  8  1  0
  8  9  1  0
  9 10  2  0
 10 11  1  0
 11 12  2  0
 12 13  1  0
 13 14  1  0
 13 15  2  0
 15 16  1  0
 15 17  1  0
 17 18  2  0
 18 19  1  0
 19 20  1  0
 10 21  1  0
 21 22  2  0
  6 23  1  0
 23 24  2  0
 24 25  1  0
 25 26  1  0
 26 27  1  0
 27 28  1  0
 28 29  1  0
 29 30  1  0
 30 31  1  0
 31 32  1  0
 32 33  1  0
 24  3  1  0
 33 28  1  0
 21  7  1  0
 19  9  1  0
 18 11  1  0
M  END
>  <assay_chembl_id>  (125) 
CHEMBL889894

>  <assay_description>  (125) 
Displacement of [3H]5-HT from human 5HT2B receptor expressed in HEK293 cells

>  <parent_molecule_chembl_id>  (125) 
CHEMBL234947

>  <canonical_smiles>  (125) 
COc1ccc(N2Cc3c(c4cc(Cl)c(Cl)cc4n3C)C2=O)cc1OCCN1CCCCC1

>  <standard_type>  (125) 
Ki

>  <standard_relation>  (125) 
=

>  <standard_value>  (125) 
199.53

>  <standard_units>  (125) 
nM

>  <target_pref_name>  (125) 
Serotonin 2b (5-HT2b) receptor

>  <target_chembl_id>  (125) 
CHEMBL1833

>  <target_organism>  (125) 
Homo sapiens

>  <pchembl_median>  (125) 
7.3

$$$$
CHEMBL232254
     RDKit          2D

 33 37  0  0  0  0  0  0  0  0999 V2000
    4.8801  -11.2583    0.0000 C   0  0  0  0  0  0  0  0  0  0  0  0
    5.4902   -9.8880    0.0000 O   0  0  0  0  0  0  0  0  0  0  0  0
    4.6086   -8.6745    0.0000 C   0  0  0  0  0  0  0  0  0  0  0  0
    3.1168   -8.8313    0.0000 C   0  0  0  0  0  0  0  0  0  0  0  0
    2.2351   -7.6177    0.0000 C   0  0  0  0  0  0  0  0  0  0  0  0
    2.8452   -6.2474    0.0000 C   0  0  0  0  0  0  0  0  0  0  0  0
    1.9635   -5.0339    0.0000 N   0  0  0  0  0  0  0  0  0  0  0  0
    0.4635   -5.0339    0.0000 C   0  0  0  0  0  0  0  0  0  0  0  0
    0.0000   -3.6073    0.0000 C   0  0  0  0  0  0  0  0  0  0  0  0
    1.2135   -2.7256    0.0000 C   0  0  0  0  0  0  0  0  0  0  0  0
    0.7500   -1.2990    0.0000 C   0  0  0  0  0  0  0  0  0  0  0  0
    1.5000    0.0000    0.0000 C   0  0  0  0  0  0  0  0  0  0  0  0
    0.7500    1.2990    0.0000 C   0  0  0  0  0  0  0  0  0  0  0  0
    1.5000    2.5981    0.0000 F   0  0  0  0  0  0  0  0  0  0  0  0
   -0.7500    1.2990    0.0000 C   0  0  0  0  0  0  0  0  0  0  0  0
   -1.5000    0.0000    0.0000 C   0  0  0  0  0  0  0  0  0  0  0  0
   -0.7500   -1.2990    0.0000 C   0  0  0  0  0  0  0  0  0  0  0  0
   -1.2135   -2.7256    0.0000 N   0  0  0  0  0  0  0  0  0  0  0  0
   -2.6401   -3.1891    0.0000 C   0  0  0  0  0  0  0  0  0  0  0  0
    2.4271   -3.6073    0.0000 C   0  0  0  0  0  0  0  0  0  0  0  0
    3.8536   -3.1438    0.0000 O   0  0  0  0  0  0  0  0  0  0  0  0
    4.3370   -6.0906    0.0000 C   0  0  0  0  0  0  0  0  0  0  0  0
    5.2187   -7.3041    0.0000 C   0  0  0  0  0  0  0  0  0  0  0  0
    6.7104   -7.1474    0.0000 O   0  0  0  0  0  0  0  0  0  0  0  0
    7.3206   -5.7770    0.0000 C   0  0  0  0  0  0  0  0  0  0  0  0
    8.8123   -5.6202    0.0000 C   0  0  0  0  0  0  0  0  0  0  0  0
    9.4224   -4.2499    0.0000 N   0  0  0  0  0  0  0  0  0  0  0  0
   10.9142   -4.0931    0.0000 C   0  0  0  0  0  0  0  0  0  0  0  0
   11.5243   -2.7228    0.0000 C   0  0  0  0  0  0  0  0  0  0  0  0
   10.6426   -1.5093    0.0000 C   0  0  0  0  0  0  0  0  0  0  0  0
   11.2528   -0.1390    0.0000 C   0  0  0  0  0  0  0  0  0  0  0  0
    9.1509   -1.6661    0.0000 C   0  0  0  0  0  0  0  0  0  0  0  0
    8.5408   -3.0364    0.0000 C   0  0  0  0  0  0  0  0  0  0  0  0
  1  2  1  0
  2  3  1  0
  3  4  2  0
  4  5  1  0
  5  6  2  0
  6  7  1  0
  7  8  1  0
  8  9  1  0
  9 10  2  0
 10 11  1  0
 11 12  2  0
 12 13  1  0
 13 14  1  0
 13 15  2  0
 15 16  1  0
 16 17  2  0
 17 18  1  0
 18 19  1  0
 10 20  1  0
 20 21  2  0
  6 22  1  0
 22 23  2  0
 23 24  1  0
 24 25  1  0
 25 26  1  0
 26 27  1  0
 27 28  1  0
 28 29  1  0
 29 30  1  0
 30 31  1  0
 30 32  1  0
 32 33  1  0
 23  3  1  0
 33 27  1  0
 20  7  1  0
 18  9  1  0
 17 11  1  0
M  END
>  <assay_chembl_id>  (126) 
CHEMBL889894

>  <assay_description>  (126) 
Displacement of [3H]5-HT from human 5HT2B receptor expressed in HEK293 cells

>  <parent_molecule_chembl_id>  (126) 
CHEMBL232254

>  <canonical_smiles>  (126) 
COc1ccc(N2Cc3c(c4cc(F)ccc4n3C)C2=O)cc1OCCN1CCC(C)CC1

>  <standard_type>  (126) 
Ki

>  <standard_relation>  (126) 
=

>  <standard_value>  (126) 
63.1

>  <standard_units>  (126) 
nM

>  <target_pref_name>  (126) 
Serotonin 2b (5-HT2b) receptor

>  <target_chembl_id>  (126) 
CHEMBL1833

>  <target_organism>  (126) 
Homo sapiens

>  <pchembl_median>  (126) 
7.03

$$$$
CHEMBL232047
     RDKit          2D

 33 37  0  0  0  0  0  0  0  0999 V2000
    4.8801  -11.2583    0.0000 C   0  0  0  0  0  0  0  0  0  0  0  0
    5.4902   -9.8880    0.0000 O   0  0  0  0  0  0  0  0  0  0  0  0
    4.6086   -8.6745    0.0000 C   0  0  0  0  0  0  0  0  0  0  0  0
    3.1168   -8.8313    0.0000 C   0  0  0  0  0  0  0  0  0  0  0  0
    2.2351   -7.6177    0.0000 C   0  0  0  0  0  0  0  0  0  0  0  0
    2.8452   -6.2474    0.0000 C   0  0  0  0  0  0  0  0  0  0  0  0
    1.9635   -5.0339    0.0000 N   0  0  0  0  0  0  0  0  0  0  0  0
    0.4635   -5.0339    0.0000 C   0  0  0  0  0  0  0  0  0  0  0  0
    0.0000   -3.6073    0.0000 C   0  0  0  0  0  0  0  0  0  0  0  0
    1.2135   -2.7256    0.0000 C   0  0  0  0  0  0  0  0  0  0  0  0
    0.7500   -1.2990    0.0000 C   0  0  0  0  0  0  0  0  0  0  0  0
    1.5000    0.0000    0.0000 C   0  0  0  0  0  0  0  0  0  0  0  0
    0.7500    1.2990    0.0000 C   0  0  0  0  0  0  0  0  0  0  0  0
   -0.7500    1.2990    0.0000 C   0  0  0  0  0  0  0  0  0  0  0  0
   -1.5000    2.5981    0.0000 F   0  0  0  0  0  0  0  0  0  0  0  0
   -1.5000    0.0000    0.0000 C   0  0  0  0  0  0  0  0  0  0  0  0
   -0.7500   -1.2990    0.0000 C   0  0  0  0  0  0  0  0  0  0  0  0
   -1.2135   -2.7256    0.0000 N   0  0  0  0  0  0  0  0  0  0  0  0
   -2.6401   -3.1891    0.0000 C   0  0  0  0  0  0  0  0  0  0  0  0
    2.4271   -3.6073    0.0000 C   0  0  0  0  0  0  0  0  0  0  0  0
    3.8536   -3.1438    0.0000 O   0  0  0  0  0  0  0  0  0  0  0  0
    4.3370   -6.0906    0.0000 C   0  0  0  0  0  0  0  0  0  0  0  0
    5.2187   -7.3041    0.0000 C   0  0  0  0  0  0  0  0  0  0  0  0
    6.7104   -7.1474    0.0000 O   0  0  0  0  0  0  0  0  0  0  0  0
    7.3206   -5.7770    0.0000 C   0  0  0  0  0  0  0  0  0  0  0  0
    8.8123   -5.6202    0.0000 C   0  0  0  0  0  0  0  0  0  0  0  0
    9.4224   -4.2499    0.0000 N   0  0  0  0  0  0  0  0  0  0  0  0
   10.9142   -4.0931    0.0000 C   0  0  0  0  0  0  0  0  0  0  0  0
   11.5243   -2.7228    0.0000 C   0  0  0  0  0  0  0  0  0  0  0  0
   10.6426   -1.5093    0.0000 C   0  0  0  0  0  0  0  0  0  0  0  0
   11.2528   -0.1390    0.0000 C   0  0  0  0  0  0  0  0  0  0  0  0
    9.1509   -1.6661    0.0000 C   0  0  0  0  0  0  0  0  0  0  0  0
    8.5408   -3.0364    0.0000 C   0  0  0  0  0  0  0  0  0  0  0  0
  1  2  1  0
  2  3  1  0
  3  4  2  0
  4  5  1  0
  5  6  2  0
  6  7  1  0
  7  8  1  0
  8  9  1  0
  9 10  2  0
 10 11  1  0
 11 12  2  0
 12 13  1  0
 13 14  2  0
 14 15  1  0
 14 16  1  0
 16 17  2  0
 17 18  1  0
 18 19  1  0
 10 20  1  0
 20 21  2  0
  6 22  1  0
 22 23  2  0
 23 24  1  0
 24 25  1  0
 25 26  1  0
 26 27  1  0
 27 28  1  0
 28 29  1  0
 29 30  1  0
 30 31  1  0
 30 32  1  0
 32 33  1  0
 23  3  1  0
 33 27  1  0
 20  7  1  0
 18  9  1  0
 17 11  1  0
M  END
>  <assay_chembl_id>  (127) 
CHEMBL889894

>  <assay_description>  (127) 
Displacement of [3H]5-HT from human 5HT2B receptor expressed in HEK293 cells

>  <parent_molecule_chembl_id>  (127) 
CHEMBL232047

>  <canonical_smiles>  (127) 
COc1ccc(N2Cc3c(c4ccc(F)cc4n3C)C2=O)cc1OCCN1CCC(C)CC1

>  <standard_type>  (127) 
Ki

>  <standard_relation>  (127) 
=

>  <standard_value>  (127) 
251.19

>  <standard_units>  (127) 
nM

>  <target_pref_name>  (127) 
Serotonin 2b (5-HT2b) receptor

>  <target_chembl_id>  (127) 
CHEMBL1833

>  <target_organism>  (127) 
Homo sapiens

>  <pchembl_median>  (127) 
6.81

$$$$
CHEMBL395098
     RDKit          2D

 33 37  0  0  0  0  0  0  0  0999 V2000
    4.8801  -11.2583    0.0000 C   0  0  0  0  0  0  0  0  0  0  0  0
    5.4902   -9.8880    0.0000 O   0  0  0  0  0  0  0  0  0  0  0  0
    4.6086   -8.6745    0.0000 C   0  0  0  0  0  0  0  0  0  0  0  0
    3.1168   -8.8313    0.0000 C   0  0  0  0  0  0  0  0  0  0  0  0
    2.2351   -7.6177    0.0000 C   0  0  0  0  0  0  0  0  0  0  0  0
    2.8452   -6.2474    0.0000 C   0  0  0  0  0  0  0  0  0  0  0  0
    1.9635   -5.0339    0.0000 N   0  0  0  0  0  0  0  0  0  0  0  0
    0.4635   -5.0339    0.0000 C   0  0  0  0  0  0  0  0  0  0  0  0
    0.0000   -3.6073    0.0000 C   0  0  0  0  0  0  0  0  0  0  0  0
    1.2135   -2.7256    0.0000 C   0  0  0  0  0  0  0  0  0  0  0  0
    0.7500   -1.2990    0.0000 C   0  0  0  0  0  0  0  0  0  0  0  0
    1.5000    0.0000    0.0000 C   0  0  0  0  0  0  0  0  0  0  0  0
    0.7500    1.2990    0.0000 C   0  0  0  0  0  0  0  0  0  0  0  0
   -0.7500    1.2990    0.0000 C   0  0  0  0  0  0  0  0  0  0  0  0
   -1.5000    0.0000    0.0000 C   0  0  0  0  0  0  0  0  0  0  0  0
   -3.0000    0.0000    0.0000 F   0  0  0  0  0  0  0  0  0  0  0  0
   -0.7500   -1.2990    0.0000 C   0  0  0  0  0  0  0  0  0  0  0  0
   -1.2135   -2.7256    0.0000 N   0  0  0  0  0  0  0  0  0  0  0  0
   -2.6401   -3.1891    0.0000 C   0  0  0  0  0  0  0  0  0  0  0  0
    2.4271   -3.6073    0.0000 C   0  0  0  0  0  0  0  0  0  0  0  0
    3.8536   -3.1438    0.0000 O   0  0  0  0  0  0  0  0  0  0  0  0
    4.3370   -6.0906    0.0000 C   0  0  0  0  0  0  0  0  0  0  0  0
    5.2187   -7.3041    0.0000 C   0  0  0  0  0  0  0  0  0  0  0  0
    6.7104   -7.1474    0.0000 O   0  0  0  0  0  0  0  0  0  0  0  0
    7.3206   -5.7770    0.0000 C   0  0  0  0  0  0  0  0  0  0  0  0
    8.8123   -5.6202    0.0000 C   0  0  0  0  0  0  0  0  0  0  0  0
    9.4224   -4.2499    0.0000 N   0  0  0  0  0  0  0  0  0  0  0  0
   10.9142   -4.0931    0.0000 C   0  0  0  0  0  0  0  0  0  0  0  0
   11.5243   -2.7228    0.0000 C   0  0  0  0  0  0  0  0  0  0  0  0
   10.6426   -1.5093    0.0000 C   0  0  0  0  0  0  0  0  0  0  0  0
   11.2528   -0.1390    0.0000 C   0  0  0  0  0  0  0  0  0  0  0  0
    9.1509   -1.6661    0.0000 C   0  0  0  0  0  0  0  0  0  0  0  0
    8.5408   -3.0364    0.0000 C   0  0  0  0  0  0  0  0  0  0  0  0
  1  2  1  0
  2  3  1  0
  3  4  2  0
  4  5  1  0
  5  6  2  0
  6  7  1  0
  7  8  1  0
  8  9  1  0
  9 10  2  0
 10 11  1  0
 11 12  2  0
 12 13  1  0
 13 14  2  0
 14 15  1  0
 15 16  1  0
 15 17  2  0
 17 18  1  0
 18 19  1  0
 10 20  1  0
 20 21  2  0
  6 22  1  0
 22 23  2  0
 23 24  1  0
 24 25  1  0
 25 26  1  0
 26 27  1  0
 27 28  1  0
 28 29  1  0
 29 30  1  0
 30 31  1  0
 30 32  1  0
 32 33  1  0
 23  3  1  0
 33 27  1  0
 20  7  1  0
 18  9  1  0
 17 11  1  0
M  END
>  <assay_chembl_id>  (128) 
CHEMBL889894

>  <assay_description>  (128) 
Displacement of [3H]5-HT from human 5HT2B receptor expressed in HEK293 cells

>  <parent_molecule_chembl_id>  (128) 
CHEMBL395098

>  <canonical_smiles>  (128) 
COc1ccc(N2Cc3c(c4cccc(F)c4n3C)C2=O)cc1OCCN1CCC(C)CC1

>  <standard_type>  (128) 
Ki

>  <standard_relation>  (128) 
=

>  <standard_value>  (128) 
31.62

>  <standard_units>  (128) 
nM

>  <target_pref_name>  (128) 
Serotonin 2b (5-HT2b) receptor

>  <target_chembl_id>  (128) 
CHEMBL1833

>  <target_organism>  (128) 
Homo sapiens

>  <pchembl_median>  (128) 
6.45

$$$$
CHEMBL232046
     RDKit          2D

 33 37  0  0  0  0  0  0  0  0999 V2000
    4.8801  -11.2583    0.0000 C   0  0  0  0  0  0  0  0  0  0  0  0
    5.4902   -9.8880    0.0000 O   0  0  0  0  0  0  0  0  0  0  0  0
    4.6086   -8.6745    0.0000 C   0  0  0  0  0  0  0  0  0  0  0  0
    3.1168   -8.8313    0.0000 C   0  0  0  0  0  0  0  0  0  0  0  0
    2.2351   -7.6177    0.0000 C   0  0  0  0  0  0  0  0  0  0  0  0
    2.8452   -6.2474    0.0000 C   0  0  0  0  0  0  0  0  0  0  0  0
    1.9635   -5.0339    0.0000 N   0  0  0  0  0  0  0  0  0  0  0  0
    0.4635   -5.0339    0.0000 C   0  0  0  0  0  0  0  0  0  0  0  0
    0.0000   -3.6073    0.0000 C   0  0  0  0  0  0  0  0  0  0  0  0
    1.2135   -2.7256    0.0000 C   0  0  0  0  0  0  0  0  0  0  0  0
    0.7500   -1.2990    0.0000 C   0  0  0  0  0  0  0  0  0  0  0  0
    1.5000    0.0000    0.0000 C   0  0  0  0  0  0  0  0  0  0  0  0
    0.7500    1.2990    0.0000 C   0  0  0  0  0  0  0  0  0  0  0  0
    1.5000    2.5981    0.0000 Cl  0  0  0  0  0  0  0  0  0  0  0  0
   -0.7500    1.2990    0.0000 C   0  0  0  0  0  0  0  0  0  0  0  0
   -1.5000    0.0000    0.0000 C   0  0  0  0  0  0  0  0  0  0  0  0
   -0.7500   -1.2990    0.0000 C   0  0  0  0  0  0  0  0  0  0  0  0
   -1.2135   -2.7256    0.0000 N   0  0  0  0  0  0  0  0  0  0  0  0
   -2.6401   -3.1891    0.0000 C   0  0  0  0  0  0  0  0  0  0  0  0
    2.4271   -3.6073    0.0000 C   0  0  0  0  0  0  0  0  0  0  0  0
    3.8536   -3.1438    0.0000 O   0  0  0  0  0  0  0  0  0  0  0  0
    4.3370   -6.0906    0.0000 C   0  0  0  0  0  0  0  0  0  0  0  0
    5.2187   -7.3041    0.0000 C   0  0  0  0  0  0  0  0  0  0  0  0
    6.7104   -7.1474    0.0000 O   0  0  0  0  0  0  0  0  0  0  0  0
    7.3206   -5.7770    0.0000 C   0  0  0  0  0  0  0  0  0  0  0  0
    8.8123   -5.6202    0.0000 C   0  0  0  0  0  0  0  0  0  0  0  0
    9.4224   -4.2499    0.0000 N   0  0  0  0  0  0  0  0  0  0  0  0
   10.9142   -4.0931    0.0000 C   0  0  0  0  0  0  0  0  0  0  0  0
   11.5243   -2.7228    0.0000 C   0  0  0  0  0  0  0  0  0  0  0  0
   10.6426   -1.5093    0.0000 C   0  0  0  0  0  0  0  0  0  0  0  0
   11.2528   -0.1390    0.0000 C   0  0  0  0  0  0  0  0  0  0  0  0
    9.1509   -1.6661    0.0000 C   0  0  0  0  0  0  0  0  0  0  0  0
    8.5408   -3.0364    0.0000 C   0  0  0  0  0  0  0  0  0  0  0  0
  1  2  1  0
  2  3  1  0
  3  4  2  0
  4  5  1  0
  5  6  2  0
  6  7  1  0
  7  8  1  0
  8  9  1  0
  9 10  2  0
 10 11  1  0
 11 12  2  0
 12 13  1  0
 13 14  1  0
 13 15  2  0
 15 16  1  0
 16 17  2  0
 17 18  1  0
 18 19  1  0
 10 20  1  0
 20 21  2  0
  6 22  1  0
 22 23  2  0
 23 24  1  0
 24 25  1  0
 25 26  1  0
 26 27  1  0
 27 28  1  0
 28 29  1  0
 29 30  1  0
 30 31  1  0
 30 32  1  0
 32 33  1  0
 23  3  1  0
 33 27  1  0
 20  7  1  0
 18  9  1  0
 17 11  1  0
M  END
>  <assay_chembl_id>  (129) 
CHEMBL889894

>  <assay_description>  (129) 
Displacement of [3H]5-HT from human 5HT2B receptor expressed in HEK293 cells

>  <parent_molecule_chembl_id>  (129) 
CHEMBL232046

>  <canonical_smiles>  (129) 
COc1ccc(N2Cc3c(c4cc(Cl)ccc4n3C)C2=O)cc1OCCN1CCC(C)CC1

>  <standard_type>  (129) 
Ki

>  <standard_relation>  (129) 
=

>  <standard_value>  (129) 
39.81

>  <standard_units>  (129) 
nM

>  <target_pref_name>  (129) 
Serotonin 2b (5-HT2b) receptor

>  <target_chembl_id>  (129) 
CHEMBL1833

>  <target_organism>  (129) 
Homo sapiens

>  <pchembl_median>  (129) 
7.17

$$$$
CHEMBL232045
     RDKit          2D

 33 37  0  0  0  0  0  0  0  0999 V2000
    4.8801  -11.2583    0.0000 C   0  0  0  0  0  0  0  0  0  0  0  0
    5.4902   -9.8880    0.0000 O   0  0  0  0  0  0  0  0  0  0  0  0
    4.6086   -8.6745    0.0000 C   0  0  0  0  0  0  0  0  0  0  0  0
    3.1168   -8.8313    0.0000 C   0  0  0  0  0  0  0  0  0  0  0  0
    2.2351   -7.6177    0.0000 C   0  0  0  0  0  0  0  0  0  0  0  0
    2.8452   -6.2474    0.0000 C   0  0  0  0  0  0  0  0  0  0  0  0
    1.9635   -5.0339    0.0000 N   0  0  0  0  0  0  0  0  0  0  0  0
    0.4635   -5.0339    0.0000 C   0  0  0  0  0  0  0  0  0  0  0  0
    0.0000   -3.6073    0.0000 C   0  0  0  0  0  0  0  0  0  0  0  0
    1.2135   -2.7256    0.0000 C   0  0  0  0  0  0  0  0  0  0  0  0
    0.7500   -1.2990    0.0000 C   0  0  0  0  0  0  0  0  0  0  0  0
    1.5000    0.0000    0.0000 C   0  0  0  0  0  0  0  0  0  0  0  0
    0.7500    1.2990    0.0000 C   0  0  0  0  0  0  0  0  0  0  0  0
   -0.7500    1.2990    0.0000 C   0  0  0  0  0  0  0  0  0  0  0  0
   -1.5000    2.5981    0.0000 Cl  0  0  0  0  0  0  0  0  0  0  0  0
   -1.5000    0.0000    0.0000 C   0  0  0  0  0  0  0  0  0  0  0  0
   -0.7500   -1.2990    0.0000 C   0  0  0  0  0  0  0  0  0  0  0  0
   -1.2135   -2.7256    0.0000 N   0  0  0  0  0  0  0  0  0  0  0  0
   -2.6401   -3.1891    0.0000 C   0  0  0  0  0  0  0  0  0  0  0  0
    2.4271   -3.6073    0.0000 C   0  0  0  0  0  0  0  0  0  0  0  0
    3.8536   -3.1438    0.0000 O   0  0  0  0  0  0  0  0  0  0  0  0
    4.3370   -6.0906    0.0000 C   0  0  0  0  0  0  0  0  0  0  0  0
    5.2187   -7.3041    0.0000 C   0  0  0  0  0  0  0  0  0  0  0  0
    6.7104   -7.1474    0.0000 O   0  0  0  0  0  0  0  0  0  0  0  0
    7.3206   -5.7770    0.0000 C   0  0  0  0  0  0  0  0  0  0  0  0
    8.8123   -5.6202    0.0000 C   0  0  0  0  0  0  0  0  0  0  0  0
    9.4224   -4.2499    0.0000 N   0  0  0  0  0  0  0  0  0  0  0  0
   10.9142   -4.0931    0.0000 C   0  0  0  0  0  0  0  0  0  0  0  0
   11.5243   -2.7228    0.0000 C   0  0  0  0  0  0  0  0  0  0  0  0
   10.6426   -1.5093    0.0000 C   0  0  0  0  0  0  0  0  0  0  0  0
   11.2528   -0.1390    0.0000 C   0  0  0  0  0  0  0  0  0  0  0  0
    9.1509   -1.6661    0.0000 C   0  0  0  0  0  0  0  0  0  0  0  0
    8.5408   -3.0364    0.0000 C   0  0  0  0  0  0  0  0  0  0  0  0
  1  2  1  0
  2  3  1  0
  3  4  2  0
  4  5  1  0
  5  6  2  0
  6  7  1  0
  7  8  1  0
  8  9  1  0
  9 10  2  0
 10 11  1  0
 11 12  2  0
 12 13  1  0
 13 14  2  0
 14 15  1  0
 14 16  1  0
 16 17  2  0
 17 18  1  0
 18 19  1  0
 10 20  1  0
 20 21  2  0
  6 22  1  0
 22 23  2  0
 23 24  1  0
 24 25  1  0
 25 26  1  0
 26 27  1  0
 27 28  1  0
 28 29  1  0
 29 30  1  0
 30 31  1  0
 30 32  1  0
 32 33  1  0
 23  3  1  0
 33 27  1  0
 20  7  1  0
 18  9  1  0
 17 11  1  0
M  END
>  <assay_chembl_id>  (130) 
CHEMBL889894

>  <assay_description>  (130) 
Displacement of [3H]5-HT from human 5HT2B receptor expressed in HEK293 cells

>  <parent_molecule_chembl_id>  (130) 
CHEMBL232045

>  <canonical_smiles>  (130) 
COc1ccc(N2Cc3c(c4ccc(Cl)cc4n3C)C2=O)cc1OCCN1CCC(C)CC1

>  <standard_type>  (130) 
Ki

>  <standard_relation>  (130) 
=

>  <standard_value>  (130) 
199.53

>  <standard_units>  (130) 
nM

>  <target_pref_name>  (130) 
Serotonin 2b (5-HT2b) receptor

>  <target_chembl_id>  (130) 
CHEMBL1833

>  <target_organism>  (130) 
Homo sapiens

>  <pchembl_median>  (130) 
5.94

$$$$
CHEMBL231833
     RDKit          2D

 33 37  0  0  0  0  0  0  0  0999 V2000
    3.7500   -1.2990    0.0000 C   0  0  0  0  0  0  0  0  0  0  0  0
    3.0000    0.0000    0.0000 O   0  0  0  0  0  0  0  0  0  0  0  0
    1.5000    0.0000    0.0000 C   0  0  0  0  0  0  0  0  0  0  0  0
    0.7500   -1.2990    0.0000 C   0  0  0  0  0  0  0  0  0  0  0  0
   -0.7500   -1.2990    0.0000 C   0  0  0  0  0  0  0  0  0  0  0  0
   -1.5000    0.0000    0.0000 C   0  0  0  0  0  0  0  0  0  0  0  0
   -0.7500    1.2990    0.0000 C   0  0  0  0  0  0  0  0  0  0  0  0
    0.7500    1.2990    0.0000 C   0  0  0  0  0  0  0  0  0  0  0  0
   -1.7537    2.4138    0.0000 C   0  0  0  0  0  0  0  0  0  0  0  0
   -3.1240    1.8037    0.0000 C   0  0  0  0  0  0  0  0  0  0  0  0
   -2.9672    0.3119    0.0000 N   0  0  0  0  0  0  0  0  0  0  0  0
   -4.0819   -0.6918    0.0000 C   0  0  0  0  0  0  0  0  0  0  0  0
   -4.1277    2.9184    0.0000 C   0  0  0  0  0  0  0  0  0  0  0  0
   -3.3777    4.2174    0.0000 N   0  0  0  0  0  0  0  0  0  0  0  0
   -3.9878    5.5877    0.0000 C   0  0  0  0  0  0  0  0  0  0  0  0
   -3.1061    6.8012    0.0000 C   0  0  0  0  0  0  0  0  0  0  0  0
   -3.7162    8.1716    0.0000 C   0  0  0  0  0  0  0  0  0  0  0  0
   -5.2080    8.3284    0.0000 C   0  0  0  0  0  0  0  0  0  0  0  0
   -5.8181    9.6987    0.0000 O   0  0  0  0  0  0  0  0  0  0  0  0
   -4.9365   10.9122    0.0000 C   0  0  0  0  0  0  0  0  0  0  0  0
   -6.0897    7.1148    0.0000 C   0  0  0  0  0  0  0  0  0  0  0  0
   -7.5815    7.2716    0.0000 O   0  0  0  0  0  0  0  0  0  0  0  0
   -8.4632    6.0581    0.0000 C   0  0  0  0  0  0  0  0  0  0  0  0
   -9.9549    6.2149    0.0000 C   0  0  0  0  0  0  0  0  0  0  0  0
  -10.8366    5.0014    0.0000 N   0  0  0  0  0  0  0  0  0  0  0  0
  -12.3284    5.1582    0.0000 C   0  0  0  0  0  0  0  0  0  0  0  0
  -13.2101    3.9446    0.0000 C   0  0  0  0  0  0  0  0  0  0  0  0
  -12.6000    2.5743    0.0000 C   0  0  0  0  0  0  0  0  0  0  0  0
  -11.1082    2.4175    0.0000 C   0  0  0  0  0  0  0  0  0  0  0  0
  -10.2265    3.6311    0.0000 C   0  0  0  0  0  0  0  0  0  0  0  0
   -5.4796    5.7445    0.0000 C   0  0  0  0  0  0  0  0  0  0  0  0
   -1.9105    3.9055    0.0000 C   0  0  0  0  0  0  0  0  0  0  0  0
   -0.7958    4.9092    0.0000 O   0  0  0  0  0  0  0  0  0  0  0  0
  1  2  1  0
  2  3  1  0
  3  4  2  0
  4  5  1  0
  5  6  2  0
  6  7  1  0
  7  8  2  0
  7  9  1  0
  9 10  2  0
 10 11  1  0
 11 12  1  0
 10 13  1  0
 13 14  1  0
 14 15  1  0
 15 16  2  0
 16 17  1  0
 17 18  2  0
 18 19  1  0
 19 20  1  0
 18 21  1  0
 21 22  1  0
 22 23  1  0
 23 24  1  0
 24 25  1  0
 25 26  1  0
 26 27  1  0
 27 28  1  0
 28 29  1  0
 29 30  1  0
 21 31  2  0
 14 32  1  0
 32 33  2  0
  8  3  1  0
 32  9  1  0
 11  6  1  0
 31 15  1  0
 30 25  1  0
M  END
>  <assay_chembl_id>  (131) 
CHEMBL889894

>  <assay_description>  (131) 
Displacement of [3H]5-HT from human 5HT2B receptor expressed in HEK293 cells

>  <parent_molecule_chembl_id>  (131) 
CHEMBL231833

>  <canonical_smiles>  (131) 
COc1ccc2c(c1)c1c(n2C)CN(c2ccc(OC)c(OCCN3CCCCC3)c2)C1=O

>  <standard_type>  (131) 
Ki

>  <standard_relation>  (131) 
=

>  <standard_value>  (131) 
794.33

>  <standard_units>  (131) 
nM

>  <target_pref_name>  (131) 
Serotonin 2b (5-HT2b) receptor

>  <target_chembl_id>  (131) 
CHEMBL1833

>  <target_organism>  (131) 
Homo sapiens

>  <pchembl_median>  (131) 
6.53

$$$$
CHEMBL397259
     RDKit          2D

 32 36  0  0  0  0  0  0  0  0999 V2000
    4.8801  -11.2583    0.0000 C   0  0  0  0  0  0  0  0  0  0  0  0
    5.4902   -9.8880    0.0000 O   0  0  0  0  0  0  0  0  0  0  0  0
    4.6086   -8.6745    0.0000 C   0  0  0  0  0  0  0  0  0  0  0  0
    3.1168   -8.8313    0.0000 C   0  0  0  0  0  0  0  0  0  0  0  0
    2.2351   -7.6177    0.0000 C   0  0  0  0  0  0  0  0  0  0  0  0
    2.8452   -6.2474    0.0000 C   0  0  0  0  0  0  0  0  0  0  0  0
    1.9635   -5.0339    0.0000 N   0  0  0  0  0  0  0  0  0  0  0  0
    0.4635   -5.0339    0.0000 C   0  0  0  0  0  0  0  0  0  0  0  0
    0.0000   -3.6073    0.0000 C   0  0  0  0  0  0  0  0  0  0  0  0
    1.2135   -2.7256    0.0000 C   0  0  0  0  0  0  0  0  0  0  0  0
    0.7500   -1.2990    0.0000 C   0  0  0  0  0  0  0  0  0  0  0  0
    1.5000    0.0000    0.0000 C   0  0  0  0  0  0  0  0  0  0  0  0
    0.7500    1.2990    0.0000 C   0  0  0  0  0  0  0  0  0  0  0  0
   -0.7500    1.2990    0.0000 C   0  0  0  0  0  0  0  0  0  0  0  0
   -1.5000    2.5981    0.0000 Cl  0  0  0  0  0  0  0  0  0  0  0  0
   -1.5000    0.0000    0.0000 C   0  0  0  0  0  0  0  0  0  0  0  0
   -0.7500   -1.2990    0.0000 C   0  0  0  0  0  0  0  0  0  0  0  0
   -1.2135   -2.7256    0.0000 N   0  0  0  0  0  0  0  0  0  0  0  0
   -2.6401   -3.1891    0.0000 C   0  0  0  0  0  0  0  0  0  0  0  0
    2.4271   -3.6073    0.0000 C   0  0  0  0  0  0  0  0  0  0  0  0
    3.8536   -3.1438    0.0000 O   0  0  0  0  0  0  0  0  0  0  0  0
    4.3370   -6.0906    0.0000 C   0  0  0  0  0  0  0  0  0  0  0  0
    5.2187   -7.3041    0.0000 C   0  0  0  0  0  0  0  0  0  0  0  0
    6.7104   -7.1474    0.0000 O   0  0  0  0  0  0  0  0  0  0  0  0
    7.3206   -5.7770    0.0000 C   0  0  0  0  0  0  0  0  0  0  0  0
    8.8123   -5.6202    0.0000 C   0  0  0  0  0  0  0  0  0  0  0  0
    9.4224   -4.2499    0.0000 N   0  0  0  0  0  0  0  0  0  0  0  0
   10.9142   -4.0931    0.0000 C   0  0  0  0  0  0  0  0  0  0  0  0
   11.5243   -2.7228    0.0000 C   0  0  0  0  0  0  0  0  0  0  0  0
   10.6426   -1.5093    0.0000 C   0  0  0  0  0  0  0  0  0  0  0  0
    9.1509   -1.6661    0.0000 C   0  0  0  0  0  0  0  0  0  0  0  0
    8.5408   -3.0364    0.0000 C   0  0  0  0  0  0  0  0  0  0  0  0
  1  2  1  0
  2  3  1  0
  3  4  2  0
  4  5  1  0
  5  6  2  0
  6  7  1  0
  7  8  1  0
  8  9  1  0
  9 10  2  0
 10 11  1  0
 11 12  2  0
 12 13  1  0
 13 14  2  0
 14 15  1  0
 14 16  1  0
 16 17  2  0
 17 18  1  0
 18 19  1  0
 10 20  1  0
 20 21  2  0
  6 22  1  0
 22 23  2  0
 23 24  1  0
 24 25  1  0
 25 26  1  0
 26 27  1  0
 27 28  1  0
 28 29  1  0
 29 30  1  0
 30 31  1  0
 31 32  1  0
 23  3  1  0
 32 27  1  0
 20  7  1  0
 18  9  1  0
 17 11  1  0
M  END
>  <assay_chembl_id>  (132) 
CHEMBL889894

>  <assay_description>  (132) 
Displacement of [3H]5-HT from human 5HT2B receptor expressed in HEK293 cells

>  <parent_molecule_chembl_id>  (132) 
CHEMBL397259

>  <canonical_smiles>  (132) 
COc1ccc(N2Cc3c(c4ccc(Cl)cc4n3C)C2=O)cc1OCCN1CCCCC1

>  <standard_type>  (132) 
Ki

>  <standard_relation>  (132) 
=

>  <standard_value>  (132) 
158.49

>  <standard_units>  (132) 
nM

>  <target_pref_name>  (132) 
Serotonin 2b (5-HT2b) receptor

>  <target_chembl_id>  (132) 
CHEMBL1833

>  <target_organism>  (132) 
Homo sapiens

>  <pchembl_median>  (132) 
5.88

$$$$
CHEMBL535626
     RDKit          2D

 32 35  0  0  0  0  0  0  0  0999 V2000
    4.8801  -11.2583    0.0000 C   0  0  0  0  0  0  0  0  0  0  0  0
    5.4902   -9.8880    0.0000 O   0  0  0  0  0  0  0  0  0  0  0  0
    4.6086   -8.6745    0.0000 C   0  0  0  0  0  0  0  0  0  0  0  0
    3.1168   -8.8313    0.0000 C   0  0  0  0  0  0  0  0  0  0  0  0
    2.2351   -7.6177    0.0000 C   0  0  0  0  0  0  0  0  0  0  0  0
    2.8452   -6.2474    0.0000 C   0  0  0  0  0  0  0  0  0  0  0  0
    1.9635   -5.0339    0.0000 N   0  0  0  0  0  0  0  0  0  0  0  0
    0.4635   -5.0339    0.0000 C   0  0  0  0  0  0  0  0  0  0  0  0
    0.0000   -3.6073    0.0000 C   0  0  0  0  0  0  0  0  0  0  0  0
    1.2135   -2.7256    0.0000 C   0  0  0  0  0  0  0  0  0  0  0  0
    0.7500   -1.2990    0.0000 C   0  0  0  0  0  0  0  0  0  0  0  0
    1.5000    0.0000    0.0000 C   0  0  0  0  0  0  0  0  0  0  0  0
    0.7500    1.2990    0.0000 C   0  0  0  0  0  0  0  0  0  0  0  0
   -0.7500    1.2990    0.0000 C   0  0  0  0  0  0  0  0  0  0  0  0
   -1.5000    0.0000    0.0000 C   0  0  0  0  0  0  0  0  0  0  0  0
   -0.7500   -1.2990    0.0000 C   0  0  0  0  0  0  0  0  0  0  0  0
   -1.2135   -2.7256    0.0000 N   0  0  0  0  0  0  0  0  0  0  0  0
   -2.6401   -3.1891    0.0000 C   0  0  0  0  0  0  0  0  0  0  0  0
    2.4271   -3.6073    0.0000 C   0  0  0  0  0  0  0  0  0  0  0  0
    3.8536   -3.1438    0.0000 O   0  0  0  0  0  0  0  0  0  0  0  0
    4.3370   -6.0906    0.0000 C   0  0  0  0  0  0  0  0  0  0  0  0
    5.2187   -7.3041    0.0000 C   0  0  0  0  0  0  0  0  0  0  0  0
    6.7104   -7.1474    0.0000 O   0  0  0  0  0  0  0  0  0  0  0  0
    7.3206   -5.7770    0.0000 C   0  0  0  0  0  0  0  0  0  0  0  0
    8.8123   -5.6202    0.0000 C   0  0  0  0  0  0  0  0  0  0  0  0
    9.4224   -4.2499    0.0000 N   0  0  0  0  0  0  0  0  0  0  0  0
   10.9142   -4.0931    0.0000 C   0  0  0  0  0  0  0  0  0  0  0  0
   11.5243   -2.7228    0.0000 C   0  0  0  0  0  0  0  0  0  0  0  0
   10.6426   -1.5093    0.0000 C   0  0  0  0  0  0  0  0  0  0  0  0
    9.1509   -1.6661    0.0000 C   0  0  0  0  0  0  0  0  0  0  0  0
    8.5408   -3.0364    0.0000 C   0  0  0  0  0  0  0  0  0  0  0  0
    0.0000    2.2990    0.0000 Cl  0  0  0  0  0  0  0  0  0  0  0  0
  1  2  1  0
  2  3  1  0
  3  4  2  0
  4  5  1  0
  5  6  2  0
  6  7  1  0
  7  8  1  0
  8  9  1  0
  9 10  2  0
 10 11  1  0
 11 12  2  0
 12 13  1  0
 13 14  2  0
 14 15  1  0
 15 16  2  0
 16 17  1  0
 17 18  1  0
 10 19  1  0
 19 20  2  0
  6 21  1  0
 21 22  2  0
 22 23  1  0
 23 24  1  0
 24 25  1  0
 25 26  1  0
 26 27  1  0
 27 28  1  0
 28 29  1  0
 29 30  1  0
 30 31  1  0
 22  3  1  0
 31 26  1  0
 19  7  1  0
 17  9  1  0
 16 11  1  0
M  END
>  <assay_chembl_id>  (133) 
CHEMBL889894

>  <assay_description>  (133) 
Displacement of [3H]5-HT from human 5HT2B receptor expressed in HEK293 cells

>  <parent_molecule_chembl_id>  (133) 
CHEMBL1188213

>  <canonical_smiles>  (133) 
COc1ccc(N2Cc3c(c4ccccc4n3C)C2=O)cc1OCCN1CCCCC1.Cl

>  <standard_type>  (133) 
Ki

>  <standard_relation>  (133) 
=

>  <standard_value>  (133) 
199.53

>  <standard_units>  (133) 
nM

>  <target_pref_name>  (133) 
Serotonin 2b (5-HT2b) receptor

>  <target_chembl_id>  (133) 
CHEMBL1833

>  <target_organism>  (133) 
Homo sapiens

>  <pchembl_median>  (133) 
7.11

$$$$
CHEMBL388882
     RDKit          2D

 31 35  0  0  0  0  0  0  0  0999 V2000
   -6.9820   -9.7312    0.0000 C   0  0  0  0  0  0  0  0  0  0  0  0
   -5.4902   -9.8880    0.0000 O   0  0  0  0  0  0  0  0  0  0  0  0
   -4.6086   -8.6745    0.0000 C   0  0  0  0  0  0  0  0  0  0  0  0
   -5.2187   -7.3041    0.0000 C   0  0  0  0  0  0  0  0  0  0  0  0
   -4.3370   -6.0906    0.0000 C   0  0  0  0  0  0  0  0  0  0  0  0
   -2.8452   -6.2474    0.0000 C   0  0  0  0  0  0  0  0  0  0  0  0
   -1.9635   -5.0339    0.0000 N   0  0  0  0  0  0  0  0  0  0  0  0
   -0.4635   -5.0339    0.0000 C   0  0  0  0  0  0  0  0  0  0  0  0
   -0.0000   -3.6073    0.0000 C   0  0  0  0  0  0  0  0  0  0  0  0
    1.2135   -2.7256    0.0000 S   0  0  0  0  0  0  0  0  0  0  0  0
    0.7500   -1.2990    0.0000 C   0  0  0  0  0  0  0  0  0  0  0  0
    1.5000    0.0000    0.0000 C   0  0  0  0  0  0  0  0  0  0  0  0
    0.7500    1.2990    0.0000 C   0  0  0  0  0  0  0  0  0  0  0  0
   -0.7500    1.2990    0.0000 C   0  0  0  0  0  0  0  0  0  0  0  0
   -1.5000    0.0000    0.0000 C   0  0  0  0  0  0  0  0  0  0  0  0
   -0.7500   -1.2990    0.0000 C   0  0  0  0  0  0  0  0  0  0  0  0
   -1.2135   -2.7256    0.0000 C   0  0  0  0  0  0  0  0  0  0  0  0
   -2.4271   -3.6073    0.0000 C   0  0  0  0  0  0  0  0  0  0  0  0
   -3.8536   -3.1438    0.0000 O   0  0  0  0  0  0  0  0  0  0  0  0
   -2.2351   -7.6177    0.0000 C   0  0  0  0  0  0  0  0  0  0  0  0
   -3.1168   -8.8313    0.0000 C   0  0  0  0  0  0  0  0  0  0  0  0
   -2.5067  -10.2016    0.0000 O   0  0  0  0  0  0  0  0  0  0  0  0
   -1.0149  -10.3584    0.0000 C   0  0  0  0  0  0  0  0  0  0  0  0
   -0.4048  -11.7287    0.0000 C   0  0  0  0  0  0  0  0  0  0  0  0
    1.0870  -11.8855    0.0000 N   0  0  0  0  0  0  0  0  0  0  0  0
    1.6971  -13.2558    0.0000 C   0  0  0  0  0  0  0  0  0  0  0  0
    3.1889  -13.4126    0.0000 C   0  0  0  0  0  0  0  0  0  0  0  0
    4.0706  -12.1991    0.0000 C   0  0  0  0  0  0  0  0  0  0  0  0
    5.5623  -12.3559    0.0000 C   0  0  0  0  0  0  0  0  0  0  0  0
    3.4605  -10.8287    0.0000 C   0  0  0  0  0  0  0  0  0  0  0  0
    1.9687  -10.6720    0.0000 C   0  0  0  0  0  0  0  0  0  0  0  0
  1  2  1  0
  2  3  1  0
  3  4  2  0
  4  5  1  0
  5  6  2  0
  6  7  1  0
  7  8  1  0
  8  9  1  0
  9 10  1  0
 10 11  1  0
 11 12  2  0
 12 13  1  0
 13 14  2  0
 14 15  1  0
 15 16  2  0
 16 17  1  0
 17 18  1  0
 18 19  2  0
  6 20  1  0
 20 21  2  0
 21 22  1  0
 22 23  1  0
 23 24  1  0
 24 25  1  0
 25 26  1  0
 26 27  1  0
 27 28  1  0
 28 29  1  0
 28 30  1  0
 30 31  1  0
 21  3  1  0
 31 25  1  0
 18  7  1  0
 17  9  2  0
 16 11  1  0
M  END
>  <assay_chembl_id>  (134) 
CHEMBL889894

>  <assay_description>  (134) 
Displacement of [3H]5-HT from human 5HT2B receptor expressed in HEK293 cells

>  <parent_molecule_chembl_id>  (134) 
CHEMBL388882

>  <canonical_smiles>  (134) 
COc1ccc(N2Cc3sc4ccccc4c3C2=O)cc1OCCN1CCC(C)CC1

>  <standard_type>  (134) 
Ki

>  <standard_relation>  (134) 
=

>  <standard_value>  (134) 
199.53

>  <standard_units>  (134) 
nM

>  <target_pref_name>  (134) 
Serotonin 2b (5-HT2b) receptor

>  <target_chembl_id>  (134) 
CHEMBL1833

>  <target_organism>  (134) 
Homo sapiens

>  <pchembl_median>  (134) 
7.28

$$$$
CHEMBL395072
     RDKit          2D

 30 33  0  0  0  0  0  0  0  0999 V2000
   -1.2990  -10.3573    0.0000 C   0  0  0  0  0  0  0  0  0  0  0  0
    0.0000   -9.6073    0.0000 O   0  0  0  0  0  0  0  0  0  0  0  0
    0.0000   -8.1073    0.0000 C   0  0  0  0  0  0  0  0  0  0  0  0
   -1.2990   -7.3573    0.0000 C   0  0  0  0  0  0  0  0  0  0  0  0
   -1.2990   -5.8573    0.0000 C   0  0  0  0  0  0  0  0  0  0  0  0
   -0.0000   -5.1073    0.0000 C   0  0  0  0  0  0  0  0  0  0  0  0
   -0.0000   -3.6073    0.0000 N   0  0  0  0  0  0  0  0  0  0  0  0
    1.2135   -2.7256    0.0000 C   0  0  0  0  0  0  0  0  0  0  0  0
    0.7500   -1.2990    0.0000 C   0  0  0  0  0  0  0  0  0  0  0  0
    1.5000    0.0000    0.0000 C   0  0  0  0  0  0  0  0  0  0  0  0
    0.7500    1.2990    0.0000 C   0  0  0  0  0  0  0  0  0  0  0  0
    1.5000    2.5981    0.0000 Cl  0  0  0  0  0  0  0  0  0  0  0  0
   -0.7500    1.2990    0.0000 C   0  0  0  0  0  0  0  0  0  0  0  0
   -1.5000    0.0000    0.0000 C   0  0  0  0  0  0  0  0  0  0  0  0
   -3.0000    0.0000    0.0000 Cl  0  0  0  0  0  0  0  0  0  0  0  0
   -0.7500   -1.2990    0.0000 C   0  0  0  0  0  0  0  0  0  0  0  0
   -1.2135   -2.7256    0.0000 C   0  0  0  0  0  0  0  0  0  0  0  0
   -2.6401   -3.1891    0.0000 O   0  0  0  0  0  0  0  0  0  0  0  0
    1.2990   -5.8573    0.0000 C   0  0  0  0  0  0  0  0  0  0  0  0
    1.2990   -7.3573    0.0000 C   0  0  0  0  0  0  0  0  0  0  0  0
    2.5981   -8.1073    0.0000 O   0  0  0  0  0  0  0  0  0  0  0  0
    3.8971   -7.3573    0.0000 C   0  0  0  0  0  0  0  0  0  0  0  0
    5.1962   -8.1073    0.0000 C   0  0  0  0  0  0  0  0  0  0  0  0
    6.4952   -7.3573    0.0000 N   0  0  0  0  0  0  0  0  0  0  0  0
    6.3831   -5.8615    0.0000 C   0  0  0  0  0  0  0  0  0  0  0  0
    7.4827   -4.8412    0.0000 C   0  0  0  0  0  0  0  0  0  0  0  0
    8.9659   -5.0648    0.0000 C   0  0  0  0  0  0  0  0  0  0  0  0
    9.7159   -6.3638    0.0000 C   0  0  0  0  0  0  0  0  0  0  0  0
    9.1679   -7.7601    0.0000 C   0  0  0  0  0  0  0  0  0  0  0  0
    7.7345   -8.2023    0.0000 C   0  0  0  0  0  0  0  0  0  0  0  0
  1  2  1  0
  2  3  1  0
  3  4  2  0
  4  5  1  0
  5  6  2  0
  6  7  1  0
  7  8  1  0
  8  9  1  0
  9 10  2  0
 10 11  1  0
 11 12  1  0
 11 13  2  0
 13 14  1  0
 14 15  1  0
 14 16  2  0
 16 17  1  0
 17 18  2  0
  6 19  1  0
 19 20  2  0
 20 21  1  0
 21 22  1  0
 22 23  1  0
 23 24  1  0
 24 25  1  0
 25 26  1  0
 26 27  1  0
 27 28  1  0
 28 29  1  0
 29 30  1  0
 20  3  1  0
 30 24  1  0
 17  7  1  0
 16  9  1  0
M  END
>  <assay_chembl_id>  (135) 
CHEMBL889870

>  <assay_description>  (135) 
Displacement of [3H]5-HT from 5HT2B receptor expressed in HEK293 cells

>  <parent_molecule_chembl_id>  (135) 
CHEMBL395072

>  <canonical_smiles>  (135) 
COc1ccc(N2Cc3cc(Cl)cc(Cl)c3C2=O)cc1OCCN1CCCCCC1

>  <standard_type>  (135) 
Ki

>  <standard_relation>  (135) 
=

>  <standard_value>  (135) 
199.53

>  <standard_units>  (135) 
nM

>  <target_pref_name>  (135) 
Serotonin 2b (5-HT2b) receptor

>  <target_chembl_id>  (135) 
CHEMBL1833

>  <target_organism>  (135) 
Homo sapiens

>  <pchembl_median>  (135) 
5.58

$$$$
CHEMBL234494
     RDKit          2D

 31 34  0  0  0  0  0  0  0  0999 V2000
   -1.2990  -10.3573    0.0000 C   0  0  0  0  0  0  0  0  0  0  0  0
    0.0000   -9.6073    0.0000 O   0  0  0  0  0  0  0  0  0  0  0  0
    0.0000   -8.1073    0.0000 C   0  0  0  0  0  0  0  0  0  0  0  0
   -1.2990   -7.3573    0.0000 C   0  0  0  0  0  0  0  0  0  0  0  0
   -1.2990   -5.8573    0.0000 C   0  0  0  0  0  0  0  0  0  0  0  0
   -0.0000   -5.1073    0.0000 C   0  0  0  0  0  0  0  0  0  0  0  0
   -0.0000   -3.6073    0.0000 N   0  0  0  0  0  0  0  0  0  0  0  0
    1.2135   -2.7256    0.0000 C   0  0  0  0  0  0  0  0  0  0  0  0
    0.7500   -1.2990    0.0000 C   0  0  0  0  0  0  0  0  0  0  0  0
    1.5000    0.0000    0.0000 C   0  0  0  0  0  0  0  0  0  0  0  0
    0.7500    1.2990    0.0000 C   0  0  0  0  0  0  0  0  0  0  0  0
    1.5000    2.5981    0.0000 Cl  0  0  0  0  0  0  0  0  0  0  0  0
   -0.7500    1.2990    0.0000 C   0  0  0  0  0  0  0  0  0  0  0  0
   -1.5000    0.0000    0.0000 C   0  0  0  0  0  0  0  0  0  0  0  0
   -3.0000    0.0000    0.0000 Cl  0  0  0  0  0  0  0  0  0  0  0  0
   -0.7500   -1.2990    0.0000 C   0  0  0  0  0  0  0  0  0  0  0  0
   -1.2135   -2.7256    0.0000 C   0  0  0  0  0  0  0  0  0  0  0  0
   -2.6401   -3.1891    0.0000 O   0  0  0  0  0  0  0  0  0  0  0  0
    1.2990   -5.8573    0.0000 C   0  0  0  0  0  0  0  0  0  0  0  0
    1.2990   -7.3573    0.0000 C   0  0  0  0  0  0  0  0  0  0  0  0
    2.5981   -8.1073    0.0000 O   0  0  0  0  0  0  0  0  0  0  0  0
    3.8971   -7.3573    0.0000 C   0  0  0  0  0  0  0  0  0  0  0  0
    5.1962   -8.1073    0.0000 C   0  0  0  0  0  0  0  0  0  0  0  0
    6.4952   -7.3573    0.0000 N   0  0  0  0  0  0  0  0  0  0  0  0
    7.7942   -8.1073    0.0000 C   0  0  0  0  0  0  0  0  0  0  0  0
    9.0933   -7.3573    0.0000 C   0  0  0  0  0  0  0  0  0  0  0  0
    9.0933   -5.8573    0.0000 C   0  0  0  0  0  0  0  0  0  0  0  0
    9.6063   -4.4478    0.0000 C   0  0  0  0  0  0  0  0  0  0  0  0
   10.5705   -6.1178    0.0000 C   0  0  0  0  0  0  0  0  0  0  0  0
    7.7942   -5.1073    0.0000 C   0  0  0  0  0  0  0  0  0  0  0  0
    6.4952   -5.8573    0.0000 C   0  0  0  0  0  0  0  0  0  0  0  0
  1  2  1  0
  2  3  1  0
  3  4  2  0
  4  5  1  0
  5  6  2  0
  6  7  1  0
  7  8  1  0
  8  9  1  0
  9 10  2  0
 10 11  1  0
 11 12  1  0
 11 13  2  0
 13 14  1  0
 14 15  1  0
 14 16  2  0
 16 17  1  0
 17 18  2  0
  6 19  1  0
 19 20  2  0
 20 21  1  0
 21 22  1  0
 22 23  1  0
 23 24  1  0
 24 25  1  0
 25 26  1  0
 26 27  1  0
 27 28  1  0
 27 29  1  0
 27 30  1  0
 30 31  1  0
 20  3  1  0
 31 24  1  0
 17  7  1  0
 16  9  1  0
M  END
>  <assay_chembl_id>  (136) 
CHEMBL889870

>  <assay_description>  (136) 
Displacement of [3H]5-HT from 5HT2B receptor expressed in HEK293 cells

>  <parent_molecule_chembl_id>  (136) 
CHEMBL234494

>  <canonical_smiles>  (136) 
COc1ccc(N2Cc3cc(Cl)cc(Cl)c3C2=O)cc1OCCN1CCC(C)(C)CC1

>  <standard_type>  (136) 
Ki

>  <standard_relation>  (136) 
=

>  <standard_value>  (136) 
251.19

>  <standard_units>  (136) 
nM

>  <target_pref_name>  (136) 
Serotonin 2b (5-HT2b) receptor

>  <target_chembl_id>  (136) 
CHEMBL1833

>  <target_organism>  (136) 
Homo sapiens

>  <pchembl_median>  (136) 
6.74

$$$$
CHEMBL397709
     RDKit          2D

 31 34  0  0  0  0  0  0  0  0999 V2000
   -1.2990  -10.3573    0.0000 C   0  0  0  0  0  0  0  0  0  0  0  0
    0.0000   -9.6073    0.0000 O   0  0  0  0  0  0  0  0  0  0  0  0
    0.0000   -8.1073    0.0000 C   0  0  0  0  0  0  0  0  0  0  0  0
   -1.2990   -7.3573    0.0000 C   0  0  0  0  0  0  0  0  0  0  0  0
   -1.2990   -5.8573    0.0000 C   0  0  0  0  0  0  0  0  0  0  0  0
   -0.0000   -5.1073    0.0000 C   0  0  0  0  0  0  0  0  0  0  0  0
   -0.0000   -3.6073    0.0000 N   0  0  0  0  0  0  0  0  0  0  0  0
    1.2135   -2.7256    0.0000 C   0  0  0  0  0  0  0  0  0  0  0  0
    0.7500   -1.2990    0.0000 C   0  0  0  0  0  0  0  0  0  0  0  0
    1.5000    0.0000    0.0000 C   0  0  0  0  0  0  0  0  0  0  0  0
    0.7500    1.2990    0.0000 C   0  0  0  0  0  0  0  0  0  0  0  0
    1.5000    2.5981    0.0000 Cl  0  0  0  0  0  0  0  0  0  0  0  0
   -0.7500    1.2990    0.0000 C   0  0  0  0  0  0  0  0  0  0  0  0
   -1.5000    0.0000    0.0000 C   0  0  0  0  0  0  0  0  0  0  0  0
   -3.0000    0.0000    0.0000 Cl  0  0  0  0  0  0  0  0  0  0  0  0
   -0.7500   -1.2990    0.0000 C   0  0  0  0  0  0  0  0  0  0  0  0
   -1.2135   -2.7256    0.0000 C   0  0  0  0  0  0  0  0  0  0  0  0
   -2.6401   -3.1891    0.0000 O   0  0  0  0  0  0  0  0  0  0  0  0
    1.2990   -5.8573    0.0000 C   0  0  0  0  0  0  0  0  0  0  0  0
    1.2990   -7.3573    0.0000 C   0  0  0  0  0  0  0  0  0  0  0  0
    2.5981   -8.1073    0.0000 O   0  0  0  0  0  0  0  0  0  0  0  0
    3.8971   -7.3573    0.0000 C   0  0  0  0  0  0  0  0  0  0  0  0
    5.1962   -8.1073    0.0000 C   0  0  0  0  0  0  0  0  0  0  0  0
    6.4952   -7.3573    0.0000 N   0  0  0  0  0  0  0  0  0  0  0  0
    7.7942   -8.1073    0.0000 C   0  0  0  0  0  0  0  0  0  0  0  0
    7.7942   -9.6073    0.0000 C   0  0  0  0  0  0  0  0  0  0  0  0
    9.0933   -7.3573    0.0000 C   0  0  0  0  0  0  0  0  0  0  0  0
    9.0933   -5.8573    0.0000 C   0  0  0  0  0  0  0  0  0  0  0  0
    7.7942   -5.1073    0.0000 C   0  0  0  0  0  0  0  0  0  0  0  0
    6.4952   -5.8573    0.0000 C   0  0  0  0  0  0  0  0  0  0  0  0
    5.1962   -5.1073    0.0000 C   0  0  0  0  0  0  0  0  0  0  0  0
  1  2  1  0
  2  3  1  0
  3  4  2  0
  4  5  1  0
  5  6  2  0
  6  7  1  0
  7  8  1  0
  8  9  1  0
  9 10  2  0
 10 11  1  0
 11 12  1  0
 11 13  2  0
 13 14  1  0
 14 15  1  0
 14 16  2  0
 16 17  1  0
 17 18  2  0
  6 19  1  0
 19 20  2  0
 20 21  1  0
 21 22  1  0
 22 23  1  0
 23 24  1  0
 24 25  1  0
 25 26  1  6
 25 27  1  0
 27 28  1  0
 28 29  1  0
 29 30  1  0
 30 31  1  6
 20  3  1  0
 30 24  1  0
 17  7  1  0
 16  9  1  0
M  END
>  <assay_chembl_id>  (137) 
CHEMBL889870

>  <assay_description>  (137) 
Displacement of [3H]5-HT from 5HT2B receptor expressed in HEK293 cells

>  <parent_molecule_chembl_id>  (137) 
CHEMBL397709

>  <canonical_smiles>  (137) 
COc1ccc(N2Cc3cc(Cl)cc(Cl)c3C2=O)cc1OCCN1[C@@H](C)CCC[C@H]1C

>  <standard_type>  (137) 
Ki

>  <standard_relation>  (137) 
=

>  <standard_value>  (137) 
125.89

>  <standard_units>  (137) 
nM

>  <target_pref_name>  (137) 
Serotonin 2b (5-HT2b) receptor

>  <target_chembl_id>  (137) 
CHEMBL1833

>  <target_organism>  (137) 
Homo sapiens

>  <pchembl_median>  (137) 
6.9

$$$$
CHEMBL234492
     RDKit          2D

 30 33  0  0  0  0  0  0  0  0999 V2000
   -1.2990  -10.3573    0.0000 C   0  0  0  0  0  0  0  0  0  0  0  0
    0.0000   -9.6073    0.0000 O   0  0  0  0  0  0  0  0  0  0  0  0
    0.0000   -8.1073    0.0000 C   0  0  0  0  0  0  0  0  0  0  0  0
   -1.2990   -7.3573    0.0000 C   0  0  0  0  0  0  0  0  0  0  0  0
   -1.2990   -5.8573    0.0000 C   0  0  0  0  0  0  0  0  0  0  0  0
   -0.0000   -5.1073    0.0000 C   0  0  0  0  0  0  0  0  0  0  0  0
   -0.0000   -3.6073    0.0000 N   0  0  0  0  0  0  0  0  0  0  0  0
    1.2135   -2.7256    0.0000 C   0  0  0  0  0  0  0  0  0  0  0  0
    0.7500   -1.2990    0.0000 C   0  0  0  0  0  0  0  0  0  0  0  0
    1.5000    0.0000    0.0000 C   0  0  0  0  0  0  0  0  0  0  0  0
    0.7500    1.2990    0.0000 C   0  0  0  0  0  0  0  0  0  0  0  0
    1.5000    2.5981    0.0000 Cl  0  0  0  0  0  0  0  0  0  0  0  0
   -0.7500    1.2990    0.0000 C   0  0  0  0  0  0  0  0  0  0  0  0
   -1.5000    0.0000    0.0000 C   0  0  0  0  0  0  0  0  0  0  0  0
   -3.0000    0.0000    0.0000 Cl  0  0  0  0  0  0  0  0  0  0  0  0
   -0.7500   -1.2990    0.0000 C   0  0  0  0  0  0  0  0  0  0  0  0
   -1.2135   -2.7256    0.0000 C   0  0  0  0  0  0  0  0  0  0  0  0
   -2.6401   -3.1891    0.0000 O   0  0  0  0  0  0  0  0  0  0  0  0
    1.2990   -5.8573    0.0000 C   0  0  0  0  0  0  0  0  0  0  0  0
    1.2990   -7.3573    0.0000 C   0  0  0  0  0  0  0  0  0  0  0  0
    2.5981   -8.1073    0.0000 O   0  0  0  0  0  0  0  0  0  0  0  0
    3.8971   -7.3573    0.0000 C   0  0  0  0  0  0  0  0  0  0  0  0
    5.1962   -8.1073    0.0000 C   0  0  0  0  0  0  0  0  0  0  0  0
    6.4952   -7.3573    0.0000 N   0  0  0  0  0  0  0  0  0  0  0  0
    7.7942   -8.1073    0.0000 C   0  0  0  0  0  0  0  0  0  0  0  0
    9.0933   -7.3573    0.0000 C   0  0  0  0  0  0  0  0  0  0  0  0
    9.0933   -5.8573    0.0000 C   0  0  0  0  0  0  0  0  0  0  0  0
    7.7942   -5.1073    0.0000 C   0  0  0  0  0  0  0  0  0  0  0  0
    7.7942   -3.6073    0.0000 C   0  0  0  0  0  0  0  0  0  0  0  0
    6.4952   -5.8573    0.0000 C   0  0  0  0  0  0  0  0  0  0  0  0
  1  2  1  0
  2  3  1  0
  3  4  2  0
  4  5  1  0
  5  6  2  0
  6  7  1  0
  7  8  1  0
  8  9  1  0
  9 10  2  0
 10 11  1  0
 11 12  1  0
 11 13  2  0
 13 14  1  0
 14 15  1  0
 14 16  2  0
 16 17  1  0
 17 18  2  0
  6 19  1  0
 19 20  2  0
 20 21  1  0
 21 22  1  0
 22 23  1  0
 23 24  1  0
 24 25  1  0
 25 26  1  0
 26 27  1  0
 27 28  1  0
 28 29  1  0
 28 30  1  0
 20  3  1  0
 30 24  1  0
 17  7  1  0
 16  9  1  0
M  END
>  <assay_chembl_id>  (138) 
CHEMBL889870

>  <assay_description>  (138) 
Displacement of [3H]5-HT from 5HT2B receptor expressed in HEK293 cells

>  <parent_molecule_chembl_id>  (138) 
CHEMBL234492

>  <canonical_smiles>  (138) 
COc1ccc(N2Cc3cc(Cl)cc(Cl)c3C2=O)cc1OCCN1CCCC(C)C1

>  <standard_type>  (138) 
Ki

>  <standard_relation>  (138) 
=

>  <standard_value>  (138) 
125.89

>  <standard_units>  (138) 
nM

>  <target_pref_name>  (138) 
Serotonin 2b (5-HT2b) receptor

>  <target_chembl_id>  (138) 
CHEMBL1833

>  <target_organism>  (138) 
Homo sapiens

>  <pchembl_median>  (138) 
6.7

$$$$
CHEMBL396527
     RDKit          2D

 30 33  0  0  0  0  0  0  0  0999 V2000
   -1.2990  -10.3573    0.0000 C   0  0  0  0  0  0  0  0  0  0  0  0
    0.0000   -9.6073    0.0000 O   0  0  0  0  0  0  0  0  0  0  0  0
    0.0000   -8.1073    0.0000 C   0  0  0  0  0  0  0  0  0  0  0  0
   -1.2990   -7.3573    0.0000 C   0  0  0  0  0  0  0  0  0  0  0  0
   -1.2990   -5.8573    0.0000 C   0  0  0  0  0  0  0  0  0  0  0  0
   -0.0000   -5.1073    0.0000 C   0  0  0  0  0  0  0  0  0  0  0  0
   -0.0000   -3.6073    0.0000 N   0  0  0  0  0  0  0  0  0  0  0  0
    1.2135   -2.7256    0.0000 C   0  0  0  0  0  0  0  0  0  0  0  0
    0.7500   -1.2990    0.0000 C   0  0  0  0  0  0  0  0  0  0  0  0
    1.5000    0.0000    0.0000 C   0  0  0  0  0  0  0  0  0  0  0  0
    0.7500    1.2990    0.0000 C   0  0  0  0  0  0  0  0  0  0  0  0
    1.5000    2.5981    0.0000 C   0  0  0  0  0  0  0  0  0  0  0  0
   -0.7500    1.2990    0.0000 C   0  0  0  0  0  0  0  0  0  0  0  0
   -1.5000    0.0000    0.0000 C   0  0  0  0  0  0  0  0  0  0  0  0
   -3.0000    0.0000    0.0000 C   0  0  0  0  0  0  0  0  0  0  0  0
   -0.7500   -1.2990    0.0000 C   0  0  0  0  0  0  0  0  0  0  0  0
   -1.2135   -2.7256    0.0000 C   0  0  0  0  0  0  0  0  0  0  0  0
   -2.6401   -3.1891    0.0000 O   0  0  0  0  0  0  0  0  0  0  0  0
    1.2990   -5.8573    0.0000 C   0  0  0  0  0  0  0  0  0  0  0  0
    1.2990   -7.3573    0.0000 C   0  0  0  0  0  0  0  0  0  0  0  0
    2.5981   -8.1073    0.0000 O   0  0  0  0  0  0  0  0  0  0  0  0
    3.8971   -7.3573    0.0000 C   0  0  0  0  0  0  0  0  0  0  0  0
    5.1962   -8.1073    0.0000 C   0  0  0  0  0  0  0  0  0  0  0  0
    6.4952   -7.3573    0.0000 N   0  0  0  0  0  0  0  0  0  0  0  0
    7.7942   -8.1073    0.0000 C   0  0  0  0  0  0  0  0  0  0  0  0
    9.0933   -7.3573    0.0000 C   0  0  0  0  0  0  0  0  0  0  0  0
    9.0933   -5.8573    0.0000 C   0  0  0  0  0  0  0  0  0  0  0  0
   10.3923   -5.1073    0.0000 C   0  0  0  0  0  0  0  0  0  0  0  0
    7.7942   -5.1073    0.0000 C   0  0  0  0  0  0  0  0  0  0  0  0
    6.4952   -5.8573    0.0000 C   0  0  0  0  0  0  0  0  0  0  0  0
  1  2  1  0
  2  3  1  0
  3  4  2  0
  4  5  1  0
  5  6  2  0
  6  7  1  0
  7  8  1  0
  8  9  1  0
  9 10  2  0
 10 11  1  0
 11 12  1  0
 11 13  2  0
 13 14  1  0
 14 15  1  0
 14 16  2  0
 16 17  1  0
 17 18  2  0
  6 19  1  0
 19 20  2  0
 20 21  1  0
 21 22  1  0
 22 23  1  0
 23 24  1  0
 24 25  1  0
 25 26  1  0
 26 27  1  0
 27 28  1  0
 27 29  1  0
 29 30  1  0
 20  3  1  0
 30 24  1  0
 17  7  1  0
 16  9  1  0
M  END
>  <assay_chembl_id>  (139) 
CHEMBL889870

>  <assay_description>  (139) 
Displacement of [3H]5-HT from 5HT2B receptor expressed in HEK293 cells

>  <parent_molecule_chembl_id>  (139) 
CHEMBL396527

>  <canonical_smiles>  (139) 
COc1ccc(N2Cc3cc(C)cc(C)c3C2=O)cc1OCCN1CCC(C)CC1

>  <standard_type>  (139) 
Ki

>  <standard_relation>  (139) 
=

>  <standard_value>  (139) 
316.23

>  <standard_units>  (139) 
nM

>  <target_pref_name>  (139) 
Serotonin 2b (5-HT2b) receptor

>  <target_chembl_id>  (139) 
CHEMBL1833

>  <target_organism>  (139) 
Homo sapiens

>  <pchembl_median>  (139) 
9.4

$$$$
CHEMBL234739
     RDKit          2D

 33 36  0  0  0  0  0  0  0  0999 V2000
   -1.2990  -10.3573    0.0000 C   0  0  0  0  0  0  0  0  0  0  0  0
    0.0000   -9.6073    0.0000 O   0  0  0  0  0  0  0  0  0  0  0  0
    0.0000   -8.1073    0.0000 C   0  0  0  0  0  0  0  0  0  0  0  0
   -1.2990   -7.3573    0.0000 C   0  0  0  0  0  0  0  0  0  0  0  0
   -1.2990   -5.8573    0.0000 C   0  0  0  0  0  0  0  0  0  0  0  0
   -0.0000   -5.1073    0.0000 C   0  0  0  0  0  0  0  0  0  0  0  0
   -0.0000   -3.6073    0.0000 N   0  0  0  0  0  0  0  0  0  0  0  0
    1.2135   -2.7256    0.0000 C   0  0  0  0  0  0  0  0  0  0  0  0
    0.7500   -1.2990    0.0000 C   0  0  0  0  0  0  0  0  0  0  0  0
    1.5000    0.0000    0.0000 C   0  0  0  0  0  0  0  0  0  0  0  0
    0.7500    1.2990    0.0000 C   0  0  0  0  0  0  0  0  0  0  0  0
    1.5000    2.5981    0.0000 F   0  0  0  0  0  0  0  0  0  0  0  0
   -0.7500    1.2990    0.0000 C   0  0  0  0  0  0  0  0  0  0  0  0
   -1.5000    0.0000    0.0000 C   0  0  0  0  0  0  0  0  0  0  0  0
   -3.0000    0.0000    0.0000 C   0  0  0  0  0  0  0  0  0  0  0  0
   -4.5000    0.0000    0.0000 F   0  0  0  0  0  0  0  0  0  0  0  0
   -3.0000    1.5000    0.0000 F   0  0  0  0  0  0  0  0  0  0  0  0
   -3.0000   -1.5000    0.0000 F   0  0  0  0  0  0  0  0  0  0  0  0
   -0.7500   -1.2990    0.0000 C   0  0  0  0  0  0  0  0  0  0  0  0
   -1.2135   -2.7256    0.0000 C   0  0  0  0  0  0  0  0  0  0  0  0
   -2.6401   -3.1891    0.0000 O   0  0  0  0  0  0  0  0  0  0  0  0
    1.2990   -5.8573    0.0000 C   0  0  0  0  0  0  0  0  0  0  0  0
    1.2990   -7.3573    0.0000 C   0  0  0  0  0  0  0  0  0  0  0  0
    2.5981   -8.1073    0.0000 O   0  0  0  0  0  0  0  0  0  0  0  0
    3.8971   -7.3573    0.0000 C   0  0  0  0  0  0  0  0  0  0  0  0
    5.1962   -8.1073    0.0000 C   0  0  0  0  0  0  0  0  0  0  0  0
    6.4952   -7.3573    0.0000 N   0  0  0  0  0  0  0  0  0  0  0  0
    7.7942   -8.1073    0.0000 C   0  0  0  0  0  0  0  0  0  0  0  0
    9.0933   -7.3573    0.0000 C   0  0  0  0  0  0  0  0  0  0  0  0
    9.0933   -5.8573    0.0000 C   0  0  0  0  0  0  0  0  0  0  0  0
   10.3923   -5.1073    0.0000 C   0  0  0  0  0  0  0  0  0  0  0  0
    7.7942   -5.1073    0.0000 C   0  0  0  0  0  0  0  0  0  0  0  0
    6.4952   -5.8573    0.0000 C   0  0  0  0  0  0  0  0  0  0  0  0
  1  2  1  0
  2  3  1  0
  3  4  2  0
  4  5  1  0
  5  6  2  0
  6  7  1  0
  7  8  1  0
  8  9  1  0
  9 10  2  0
 10 11  1  0
 11 12  1  0
 11 13  2  0
 13 14  1  0
 14 15  1  0
 15 16  1  0
 15 17  1  0
 15 18  1  0
 14 19  2  0
 19 20  1  0
 20 21  2  0
  6 22  1  0
 22 23  2  0
 23 24  1  0
 24 25  1  0
 25 26  1  0
 26 27  1  0
 27 28  1  0
 28 29  1  0
 29 30  1  0
 30 31  1  0
 30 32  1  0
 32 33  1  0
 23  3  1  0
 33 27  1  0
 20  7  1  0
 19  9  1  0
M  END
>  <assay_chembl_id>  (140) 
CHEMBL889870

>  <assay_description>  (140) 
Displacement of [3H]5-HT from 5HT2B receptor expressed in HEK293 cells

>  <parent_molecule_chembl_id>  (140) 
CHEMBL234739

>  <canonical_smiles>  (140) 
COc1ccc(N2Cc3cc(F)cc(C(F)(F)F)c3C2=O)cc1OCCN1CCC(C)CC1

>  <standard_type>  (140) 
Ki

>  <standard_relation>  (140) 
=

>  <standard_value>  (140) 
251.19

>  <standard_units>  (140) 
nM

>  <target_pref_name>  (140) 
Serotonin 2b (5-HT2b) receptor

>  <target_chembl_id>  (140) 
CHEMBL1833

>  <target_organism>  (140) 
Homo sapiens

>  <pchembl_median>  (140) 
7.82

$$$$
CHEMBL395298
     RDKit          2D

 31 34  0  0  0  0  0  0  0  0999 V2000
    3.7156    7.2317    0.0000 C   0  0  0  0  0  0  0  0  0  0  0  0
    2.2484    6.9199    0.0000 O   0  0  0  0  0  0  0  0  0  0  0  0
    1.7849    5.4933    0.0000 C   0  0  0  0  0  0  0  0  0  0  0  0
    2.7886    4.3786    0.0000 C   0  0  0  0  0  0  0  0  0  0  0  0
    2.3250    2.9520    0.0000 C   0  0  0  0  0  0  0  0  0  0  0  0
    0.8578    2.6401    0.0000 C   0  0  0  0  0  0  0  0  0  0  0  0
    0.3943    1.2135    0.0000 N   0  0  0  0  0  0  0  0  0  0  0  0
    1.2760    0.0000    0.0000 C   0  0  0  0  0  0  0  0  0  0  0  0
    0.3943   -1.2135    0.0000 C   0  0  0  0  0  0  0  0  0  0  0  0
    0.7062   -2.6807    0.0000 C   0  0  0  0  0  0  0  0  0  0  0  0
   -0.4086   -3.6844    0.0000 C   0  0  0  0  0  0  0  0  0  0  0  0
   -0.0967   -5.1517    0.0000 Cl  0  0  0  0  0  0  0  0  0  0  0  0
   -1.8351   -3.2209    0.0000 C   0  0  0  0  0  0  0  0  0  0  0  0
   -2.9499   -4.2246    0.0000 C   0  0  0  0  0  0  0  0  0  0  0  0
   -2.1470   -1.7537    0.0000 C   0  0  0  0  0  0  0  0  0  0  0  0
   -3.5736   -1.2902    0.0000 Cl  0  0  0  0  0  0  0  0  0  0  0  0
   -1.0323   -0.7500    0.0000 C   0  0  0  0  0  0  0  0  0  0  0  0
   -1.0323    0.7500    0.0000 C   0  0  0  0  0  0  0  0  0  0  0  0
   -2.2458    1.6317    0.0000 O   0  0  0  0  0  0  0  0  0  0  0  0
   -0.1459    3.7548    0.0000 C   0  0  0  0  0  0  0  0  0  0  0  0
    0.3177    5.1814    0.0000 C   0  0  0  0  0  0  0  0  0  0  0  0
   -0.6860    6.2961    0.0000 O   0  0  0  0  0  0  0  0  0  0  0  0
   -2.1533    5.9843    0.0000 C   0  0  0  0  0  0  0  0  0  0  0  0
   -3.1570    7.0990    0.0000 C   0  0  0  0  0  0  0  0  0  0  0  0
   -4.6242    6.7871    0.0000 N   0  0  0  0  0  0  0  0  0  0  0  0
   -5.6279    7.9018    0.0000 C   0  0  0  0  0  0  0  0  0  0  0  0
   -7.0951    7.5900    0.0000 C   0  0  0  0  0  0  0  0  0  0  0  0
   -7.5586    6.1634    0.0000 C   0  0  0  0  0  0  0  0  0  0  0  0
   -9.0258    5.8515    0.0000 C   0  0  0  0  0  0  0  0  0  0  0  0
   -6.5549    5.0487    0.0000 C   0  0  0  0  0  0  0  0  0  0  0  0
   -5.0877    5.3605    0.0000 C   0  0  0  0  0  0  0  0  0  0  0  0
  1  2  1  0
  2  3  1  0
  3  4  2  0
  4  5  1  0
  5  6  2  0
  6  7  1  0
  7  8  1  0
  8  9  1  0
  9 10  2  0
 10 11  1  0
 11 12  1  0
 11 13  2  0
 13 14  1  0
 13 15  1  0
 15 16  1  0
 15 17  2  0
 17 18  1  0
 18 19  2  0
  6 20  1  0
 20 21  2  0
 21 22  1  0
 22 23  1  0
 23 24  1  0
 24 25  1  0
 25 26  1  0
 26 27  1  0
 27 28  1  0
 28 29  1  0
 28 30  1  0
 30 31  1  0
 21  3  1  0
 31 25  1  0
 18  7  1  0
 17  9  1  0
M  END
>  <assay_chembl_id>  (141) 
CHEMBL889870

>  <assay_description>  (141) 
Displacement of [3H]5-HT from 5HT2B receptor expressed in HEK293 cells

>  <parent_molecule_chembl_id>  (141) 
CHEMBL395298

>  <canonical_smiles>  (141) 
COc1ccc(N2Cc3cc(Cl)c(C)c(Cl)c3C2=O)cc1OCCN1CCC(C)CC1

>  <standard_type>  (141) 
Ki

>  <standard_relation>  (141) 
=

>  <standard_value>  (141) 
63.1

>  <standard_units>  (141) 
nM

>  <target_pref_name>  (141) 
Serotonin 2b (5-HT2b) receptor

>  <target_chembl_id>  (141) 
CHEMBL1833

>  <target_organism>  (141) 
Homo sapiens

>  <pchembl_median>  (141) 
8.15

$$$$
CHEMBL234738
     RDKit          2D

 31 34  0  0  0  0  0  0  0  0999 V2000
    3.7156    7.2317    0.0000 C   0  0  0  0  0  0  0  0  0  0  0  0
    2.2484    6.9199    0.0000 O   0  0  0  0  0  0  0  0  0  0  0  0
    1.7849    5.4933    0.0000 C   0  0  0  0  0  0  0  0  0  0  0  0
    2.7886    4.3786    0.0000 C   0  0  0  0  0  0  0  0  0  0  0  0
    2.3250    2.9520    0.0000 C   0  0  0  0  0  0  0  0  0  0  0  0
    0.8578    2.6401    0.0000 C   0  0  0  0  0  0  0  0  0  0  0  0
    0.3943    1.2135    0.0000 N   0  0  0  0  0  0  0  0  0  0  0  0
    1.2760    0.0000    0.0000 C   0  0  0  0  0  0  0  0  0  0  0  0
    0.3943   -1.2135    0.0000 C   0  0  0  0  0  0  0  0  0  0  0  0
    0.7062   -2.6807    0.0000 C   0  0  0  0  0  0  0  0  0  0  0  0
   -0.4086   -3.6844    0.0000 C   0  0  0  0  0  0  0  0  0  0  0  0
   -0.0967   -5.1517    0.0000 Cl  0  0  0  0  0  0  0  0  0  0  0  0
   -1.8351   -3.2209    0.0000 C   0  0  0  0  0  0  0  0  0  0  0  0
   -2.9499   -4.2246    0.0000 Cl  0  0  0  0  0  0  0  0  0  0  0  0
   -2.1470   -1.7537    0.0000 C   0  0  0  0  0  0  0  0  0  0  0  0
   -3.5736   -1.2902    0.0000 C   0  0  0  0  0  0  0  0  0  0  0  0
   -1.0323   -0.7500    0.0000 C   0  0  0  0  0  0  0  0  0  0  0  0
   -1.0323    0.7500    0.0000 C   0  0  0  0  0  0  0  0  0  0  0  0
   -2.2458    1.6317    0.0000 O   0  0  0  0  0  0  0  0  0  0  0  0
   -0.1459    3.7548    0.0000 C   0  0  0  0  0  0  0  0  0  0  0  0
    0.3177    5.1814    0.0000 C   0  0  0  0  0  0  0  0  0  0  0  0
   -0.6860    6.2961    0.0000 O   0  0  0  0  0  0  0  0  0  0  0  0
   -2.1533    5.9843    0.0000 C   0  0  0  0  0  0  0  0  0  0  0  0
   -3.1570    7.0990    0.0000 C   0  0  0  0  0  0  0  0  0  0  0  0
   -4.6242    6.7871    0.0000 N   0  0  0  0  0  0  0  0  0  0  0  0
   -5.6279    7.9018    0.0000 C   0  0  0  0  0  0  0  0  0  0  0  0
   -7.0951    7.5900    0.0000 C   0  0  0  0  0  0  0  0  0  0  0  0
   -7.5586    6.1634    0.0000 C   0  0  0  0  0  0  0  0  0  0  0  0
   -9.0258    5.8515    0.0000 C   0  0  0  0  0  0  0  0  0  0  0  0
   -6.5549    5.0487    0.0000 C   0  0  0  0  0  0  0  0  0  0  0  0
   -5.0877    5.3605    0.0000 C   0  0  0  0  0  0  0  0  0  0  0  0
  1  2  1  0
  2  3  1  0
  3  4  2  0
  4  5  1  0
  5  6  2  0
  6  7  1  0
  7  8  1  0
  8  9  1  0
  9 10  2  0
 10 11  1  0
 11 12  1  0
 11 13  2  0
 13 14  1  0
 13 15  1  0
 15 16  1  0
 15 17  2  0
 17 18  1  0
 18 19  2  0
  6 20  1  0
 20 21  2  0
 21 22  1  0
 22 23  1  0
 23 24  1  0
 24 25  1  0
 25 26  1  0
 26 27  1  0
 27 28  1  0
 28 29  1  0
 28 30  1  0
 30 31  1  0
 21  3  1  0
 31 25  1  0
 18  7  1  0
 17  9  1  0
M  END
>  <assay_chembl_id>  (142) 
CHEMBL889870

>  <assay_description>  (142) 
Displacement of [3H]5-HT from 5HT2B receptor expressed in HEK293 cells

>  <parent_molecule_chembl_id>  (142) 
CHEMBL234738

>  <canonical_smiles>  (142) 
COc1ccc(N2Cc3cc(Cl)c(Cl)c(C)c3C2=O)cc1OCCN1CCC(C)CC1

>  <standard_type>  (142) 
Ki

>  <standard_relation>  (142) 
=

>  <standard_value>  (142) 
100.0

>  <standard_units>  (142) 
nM

>  <target_pref_name>  (142) 
Serotonin 2b (5-HT2b) receptor

>  <target_chembl_id>  (142) 
CHEMBL1833

>  <target_organism>  (142) 
Homo sapiens

>  <pchembl_median>  (142) 
5.8

$$$$
CHEMBL234533
     RDKit          2D

 30 33  0  0  0  0  0  0  0  0999 V2000
   -1.2990  -10.3573    0.0000 C   0  0  0  0  0  0  0  0  0  0  0  0
    0.0000   -9.6073    0.0000 O   0  0  0  0  0  0  0  0  0  0  0  0
    0.0000   -8.1073    0.0000 C   0  0  0  0  0  0  0  0  0  0  0  0
   -1.2990   -7.3573    0.0000 C   0  0  0  0  0  0  0  0  0  0  0  0
   -1.2990   -5.8573    0.0000 C   0  0  0  0  0  0  0  0  0  0  0  0
   -0.0000   -5.1073    0.0000 C   0  0  0  0  0  0  0  0  0  0  0  0
   -0.0000   -3.6073    0.0000 N   0  0  0  0  0  0  0  0  0  0  0  0
    1.2135   -2.7256    0.0000 C   0  0  0  0  0  0  0  0  0  0  0  0
    0.7500   -1.2990    0.0000 C   0  0  0  0  0  0  0  0  0  0  0  0
    1.5000    0.0000    0.0000 C   0  0  0  0  0  0  0  0  0  0  0  0
    0.7500    1.2990    0.0000 C   0  0  0  0  0  0  0  0  0  0  0  0
   -0.7500    1.2990    0.0000 C   0  0  0  0  0  0  0  0  0  0  0  0
   -1.5000    2.5981    0.0000 Cl  0  0  0  0  0  0  0  0  0  0  0  0
   -1.5000    0.0000    0.0000 C   0  0  0  0  0  0  0  0  0  0  0  0
   -3.0000    0.0000    0.0000 Cl  0  0  0  0  0  0  0  0  0  0  0  0
   -0.7500   -1.2990    0.0000 C   0  0  0  0  0  0  0  0  0  0  0  0
   -1.2135   -2.7256    0.0000 C   0  0  0  0  0  0  0  0  0  0  0  0
   -2.6401   -3.1891    0.0000 O   0  0  0  0  0  0  0  0  0  0  0  0
    1.2990   -5.8573    0.0000 C   0  0  0  0  0  0  0  0  0  0  0  0
    1.2990   -7.3573    0.0000 C   0  0  0  0  0  0  0  0  0  0  0  0
    2.5981   -8.1073    0.0000 O   0  0  0  0  0  0  0  0  0  0  0  0
    3.8971   -7.3573    0.0000 C   0  0  0  0  0  0  0  0  0  0  0  0
    5.1962   -8.1073    0.0000 C   0  0  0  0  0  0  0  0  0  0  0  0
    6.4952   -7.3573    0.0000 N   0  0  0  0  0  0  0  0  0  0  0  0
    7.7942   -8.1073    0.0000 C   0  0  0  0  0  0  0  0  0  0  0  0
    9.0933   -7.3573    0.0000 C   0  0  0  0  0  0  0  0  0  0  0  0
    9.0933   -5.8573    0.0000 C   0  0  0  0  0  0  0  0  0  0  0  0
   10.3923   -5.1073    0.0000 C   0  0  0  0  0  0  0  0  0  0  0  0
    7.7942   -5.1073    0.0000 C   0  0  0  0  0  0  0  0  0  0  0  0
    6.4952   -5.8573    0.0000 C   0  0  0  0  0  0  0  0  0  0  0  0
  1  2  1  0
  2  3  1  0
  3  4  2  0
  4  5  1  0
  5  6  2  0
  6  7  1  0
  7  8  1  0
  8  9  1  0
  9 10  2  0
 10 11  1  0
 11 12  2  0
 12 13  1  0
 12 14  1  0
 14 15  1  0
 14 16  2  0
 16 17  1  0
 17 18  2  0
  6 19  1  0
 19 20  2  0
 20 21  1  0
 21 22  1  0
 22 23  1  0
 23 24  1  0
 24 25  1  0
 25 26  1  0
 26 27  1  0
 27 28  1  0
 27 29  1  0
 29 30  1  0
 20  3  1  0
 30 24  1  0
 17  7  1  0
 16  9  1  0
M  END
>  <assay_chembl_id>  (143) 
CHEMBL889870

>  <assay_description>  (143) 
Displacement of [3H]5-HT from 5HT2B receptor expressed in HEK293 cells

>  <parent_molecule_chembl_id>  (143) 
CHEMBL234533

>  <canonical_smiles>  (143) 
COc1ccc(N2Cc3ccc(Cl)c(Cl)c3C2=O)cc1OCCN1CCC(C)CC1

>  <standard_type>  (143) 
Ki

>  <standard_relation>  (143) 
=

>  <standard_value>  (143) 
100.0

>  <standard_units>  (143) 
nM

>  <target_pref_name>  (143) 
Serotonin 2b (5-HT2b) receptor

>  <target_chembl_id>  (143) 
CHEMBL1833

>  <target_organism>  (143) 
Homo sapiens

>  <pchembl_median>  (143) 
6.2

$$$$
CHEMBL234532
     RDKit          2D

 30 33  0  0  0  0  0  0  0  0999 V2000
   -1.2990  -10.3573    0.0000 C   0  0  0  0  0  0  0  0  0  0  0  0
    0.0000   -9.6073    0.0000 O   0  0  0  0  0  0  0  0  0  0  0  0
    0.0000   -8.1073    0.0000 C   0  0  0  0  0  0  0  0  0  0  0  0
   -1.2990   -7.3573    0.0000 C   0  0  0  0  0  0  0  0  0  0  0  0
   -1.2990   -5.8573    0.0000 C   0  0  0  0  0  0  0  0  0  0  0  0
   -0.0000   -5.1073    0.0000 C   0  0  0  0  0  0  0  0  0  0  0  0
   -0.0000   -3.6073    0.0000 N   0  0  0  0  0  0  0  0  0  0  0  0
    1.2135   -2.7256    0.0000 C   0  0  0  0  0  0  0  0  0  0  0  0
    0.7500   -1.2990    0.0000 C   0  0  0  0  0  0  0  0  0  0  0  0
    1.5000    0.0000    0.0000 C   0  0  0  0  0  0  0  0  0  0  0  0
    0.7500    1.2990    0.0000 C   0  0  0  0  0  0  0  0  0  0  0  0
    1.5000    2.5981    0.0000 Cl  0  0  0  0  0  0  0  0  0  0  0  0
   -0.7500    1.2990    0.0000 C   0  0  0  0  0  0  0  0  0  0  0  0
   -1.5000    0.0000    0.0000 C   0  0  0  0  0  0  0  0  0  0  0  0
   -3.0000    0.0000    0.0000 Cl  0  0  0  0  0  0  0  0  0  0  0  0
   -0.7500   -1.2990    0.0000 C   0  0  0  0  0  0  0  0  0  0  0  0
   -1.2135   -2.7256    0.0000 C   0  0  0  0  0  0  0  0  0  0  0  0
   -2.6401   -3.1891    0.0000 O   0  0  0  0  0  0  0  0  0  0  0  0
    1.2990   -5.8573    0.0000 C   0  0  0  0  0  0  0  0  0  0  0  0
    1.2990   -7.3573    0.0000 C   0  0  0  0  0  0  0  0  0  0  0  0
    2.5981   -8.1073    0.0000 O   0  0  0  0  0  0  0  0  0  0  0  0
    3.8971   -7.3573    0.0000 C   0  0  0  0  0  0  0  0  0  0  0  0
    5.1962   -8.1073    0.0000 C   0  0  0  0  0  0  0  0  0  0  0  0
    6.4952   -7.3573    0.0000 N   0  0  0  0  0  0  0  0  0  0  0  0
    7.7942   -8.1073    0.0000 C   0  0  0  0  0  0  0  0  0  0  0  0
    9.0933   -7.3573    0.0000 C   0  0  0  0  0  0  0  0  0  0  0  0
    9.0933   -5.8573    0.0000 C   0  0  0  0  0  0  0  0  0  0  0  0
   10.3923   -5.1073    0.0000 C   0  0  0  0  0  0  0  0  0  0  0  0
    7.7942   -5.1073    0.0000 C   0  0  0  0  0  0  0  0  0  0  0  0
    6.4952   -5.8573    0.0000 C   0  0  0  0  0  0  0  0  0  0  0  0
  1  2  1  0
  2  3  1  0
  3  4  2  0
  4  5  1  0
  5  6  2  0
  6  7  1  0
  7  8  1  0
  8  9  1  0
  9 10  2  0
 10 11  1  0
 11 12  1  0
 11 13  2  0
 13 14  1  0
 14 15  1  0
 14 16  2  0
 16 17  1  0
 17 18  2  0
  6 19  1  0
 19 20  2  0
 20 21  1  0
 21 22  1  0
 22 23  1  0
 23 24  1  0
 24 25  1  0
 25 26  1  0
 26 27  1  0
 27 28  1  0
 27 29  1  0
 29 30  1  0
 20  3  1  0
 30 24  1  0
 17  7  1  0
 16  9  1  0
M  END
>  <assay_chembl_id>  (144) 
CHEMBL889870

>  <assay_description>  (144) 
Displacement of [3H]5-HT from 5HT2B receptor expressed in HEK293 cells

>  <parent_molecule_chembl_id>  (144) 
CHEMBL234532

>  <canonical_smiles>  (144) 
COc1ccc(N2Cc3cc(Cl)cc(Cl)c3C2=O)cc1OCCN1CCC(C)CC1

>  <standard_type>  (144) 
Ki

>  <standard_relation>  (144) 
=

>  <standard_value>  (144) 
199.53

>  <standard_units>  (144) 
nM

>  <target_pref_name>  (144) 
Serotonin 2b (5-HT2b) receptor

>  <target_chembl_id>  (144) 
CHEMBL1833

>  <target_organism>  (144) 
Homo sapiens

>  <pchembl_median>  (144) 
6.7

$$$$
CHEMBL395297
     RDKit          2D

 30 33  0  0  0  0  0  0  0  0999 V2000
   -1.2990  -10.3573    0.0000 C   0  0  0  0  0  0  0  0  0  0  0  0
    0.0000   -9.6073    0.0000 O   0  0  0  0  0  0  0  0  0  0  0  0
    0.0000   -8.1073    0.0000 C   0  0  0  0  0  0  0  0  0  0  0  0
   -1.2990   -7.3573    0.0000 C   0  0  0  0  0  0  0  0  0  0  0  0
   -1.2990   -5.8573    0.0000 C   0  0  0  0  0  0  0  0  0  0  0  0
   -0.0000   -5.1073    0.0000 C   0  0  0  0  0  0  0  0  0  0  0  0
   -0.0000   -3.6073    0.0000 N   0  0  0  0  0  0  0  0  0  0  0  0
    1.2135   -2.7256    0.0000 C   0  0  0  0  0  0  0  0  0  0  0  0
    0.7500   -1.2990    0.0000 C   0  0  0  0  0  0  0  0  0  0  0  0
    1.5000    0.0000    0.0000 C   0  0  0  0  0  0  0  0  0  0  0  0
    0.7500    1.2990    0.0000 C   0  0  0  0  0  0  0  0  0  0  0  0
    1.5000    2.5981    0.0000 Cl  0  0  0  0  0  0  0  0  0  0  0  0
   -0.7500    1.2990    0.0000 C   0  0  0  0  0  0  0  0  0  0  0  0
   -1.5000    2.5981    0.0000 Cl  0  0  0  0  0  0  0  0  0  0  0  0
   -1.5000    0.0000    0.0000 C   0  0  0  0  0  0  0  0  0  0  0  0
   -0.7500   -1.2990    0.0000 C   0  0  0  0  0  0  0  0  0  0  0  0
   -1.2135   -2.7256    0.0000 C   0  0  0  0  0  0  0  0  0  0  0  0
   -2.6401   -3.1891    0.0000 O   0  0  0  0  0  0  0  0  0  0  0  0
    1.2990   -5.8573    0.0000 C   0  0  0  0  0  0  0  0  0  0  0  0
    1.2990   -7.3573    0.0000 C   0  0  0  0  0  0  0  0  0  0  0  0
    2.5981   -8.1073    0.0000 O   0  0  0  0  0  0  0  0  0  0  0  0
    3.8971   -7.3573    0.0000 C   0  0  0  0  0  0  0  0  0  0  0  0
    5.1962   -8.1073    0.0000 C   0  0  0  0  0  0  0  0  0  0  0  0
    6.4952   -7.3573    0.0000 N   0  0  0  0  0  0  0  0  0  0  0  0
    7.7942   -8.1073    0.0000 C   0  0  0  0  0  0  0  0  0  0  0  0
    9.0933   -7.3573    0.0000 C   0  0  0  0  0  0  0  0  0  0  0  0
    9.0933   -5.8573    0.0000 C   0  0  0  0  0  0  0  0  0  0  0  0
   10.3923   -5.1073    0.0000 C   0  0  0  0  0  0  0  0  0  0  0  0
    7.7942   -5.1073    0.0000 C   0  0  0  0  0  0  0  0  0  0  0  0
    6.4952   -5.8573    0.0000 C   0  0  0  0  0  0  0  0  0  0  0  0
  1  2  1  0
  2  3  1  0
  3  4  2  0
  4  5  1  0
  5  6  2  0
  6  7  1  0
  7  8  1  0
  8  9  1  0
  9 10  2  0
 10 11  1  0
 11 12  1  0
 11 13  2  0
 13 14  1  0
 13 15  1  0
 15 16  2  0
 16 17  1  0
 17 18  2  0
  6 19  1  0
 19 20  2  0
 20 21  1  0
 21 22  1  0
 22 23  1  0
 23 24  1  0
 24 25  1  0
 25 26  1  0
 26 27  1  0
 27 28  1  0
 27 29  1  0
 29 30  1  0
 20  3  1  0
 30 24  1  0
 17  7  1  0
 16  9  1  0
M  END
>  <assay_chembl_id>  (145) 
CHEMBL889870

>  <assay_description>  (145) 
Displacement of [3H]5-HT from 5HT2B receptor expressed in HEK293 cells

>  <parent_molecule_chembl_id>  (145) 
CHEMBL395297

>  <canonical_smiles>  (145) 
COc1ccc(N2Cc3cc(Cl)c(Cl)cc3C2=O)cc1OCCN1CCC(C)CC1

>  <standard_type>  (145) 
Ki

>  <standard_relation>  (145) 
=

>  <standard_value>  (145) 
199.53

>  <standard_units>  (145) 
nM

>  <target_pref_name>  (145) 
Serotonin 2b (5-HT2b) receptor

>  <target_chembl_id>  (145) 
CHEMBL1833

>  <target_organism>  (145) 
Homo sapiens

>  <pchembl_median>  (145) 
6.3

$$$$
CHEMBL234531
     RDKit          2D

 31 34  0  0  0  0  0  0  0  0999 V2000
    3.7156    7.2317    0.0000 C   0  0  0  0  0  0  0  0  0  0  0  0
    2.2484    6.9199    0.0000 O   0  0  0  0  0  0  0  0  0  0  0  0
    1.7849    5.4933    0.0000 C   0  0  0  0  0  0  0  0  0  0  0  0
    2.7886    4.3786    0.0000 C   0  0  0  0  0  0  0  0  0  0  0  0
    2.3250    2.9520    0.0000 C   0  0  0  0  0  0  0  0  0  0  0  0
    0.8578    2.6401    0.0000 C   0  0  0  0  0  0  0  0  0  0  0  0
    0.3943    1.2135    0.0000 N   0  0  0  0  0  0  0  0  0  0  0  0
    1.2760    0.0000    0.0000 C   0  0  0  0  0  0  0  0  0  0  0  0
    0.3943   -1.2135    0.0000 C   0  0  0  0  0  0  0  0  0  0  0  0
    0.7062   -2.6807    0.0000 C   0  0  0  0  0  0  0  0  0  0  0  0
    2.1328   -3.1443    0.0000 F   0  0  0  0  0  0  0  0  0  0  0  0
   -0.4086   -3.6844    0.0000 C   0  0  0  0  0  0  0  0  0  0  0  0
   -0.0967   -5.1517    0.0000 F   0  0  0  0  0  0  0  0  0  0  0  0
   -1.8351   -3.2209    0.0000 C   0  0  0  0  0  0  0  0  0  0  0  0
   -2.1470   -1.7537    0.0000 C   0  0  0  0  0  0  0  0  0  0  0  0
   -3.5736   -1.2902    0.0000 Cl  0  0  0  0  0  0  0  0  0  0  0  0
   -1.0323   -0.7500    0.0000 C   0  0  0  0  0  0  0  0  0  0  0  0
   -1.0323    0.7500    0.0000 C   0  0  0  0  0  0  0  0  0  0  0  0
   -2.2458    1.6317    0.0000 O   0  0  0  0  0  0  0  0  0  0  0  0
   -0.1459    3.7548    0.0000 C   0  0  0  0  0  0  0  0  0  0  0  0
    0.3177    5.1814    0.0000 C   0  0  0  0  0  0  0  0  0  0  0  0
   -0.6860    6.2961    0.0000 O   0  0  0  0  0  0  0  0  0  0  0  0
   -2.1533    5.9843    0.0000 C   0  0  0  0  0  0  0  0  0  0  0  0
   -3.1570    7.0990    0.0000 C   0  0  0  0  0  0  0  0  0  0  0  0
   -4.6242    6.7871    0.0000 N   0  0  0  0  0  0  0  0  0  0  0  0
   -5.6279    7.9018    0.0000 C   0  0  0  0  0  0  0  0  0  0  0  0
   -7.0951    7.5900    0.0000 C   0  0  0  0  0  0  0  0  0  0  0  0
   -7.5586    6.1634    0.0000 C   0  0  0  0  0  0  0  0  0  0  0  0
   -9.0258    5.8515    0.0000 C   0  0  0  0  0  0  0  0  0  0  0  0
   -6.5549    5.0487    0.0000 C   0  0  0  0  0  0  0  0  0  0  0  0
   -5.0877    5.3605    0.0000 C   0  0  0  0  0  0  0  0  0  0  0  0
  1  2  1  0
  2  3  1  0
  3  4  2  0
  4  5  1  0
  5  6  2  0
  6  7  1  0
  7  8  1  0
  8  9  1  0
  9 10  2  0
 10 11  1  0
 10 12  1  0
 12 13  1  0
 12 14  2  0
 14 15  1  0
 15 16  1  0
 15 17  2  0
 17 18  1  0
 18 19  2  0
  6 20  1  0
 20 21  2  0
 21 22  1  0
 22 23  1  0
 23 24  1  0
 24 25  1  0
 25 26  1  0
 26 27  1  0
 27 28  1  0
 28 29  1  0
 28 30  1  0
 30 31  1  0
 21  3  1  0
 31 25  1  0
 18  7  1  0
 17  9  1  0
M  END
>  <assay_chembl_id>  (146) 
CHEMBL889870

>  <assay_description>  (146) 
Displacement of [3H]5-HT from 5HT2B receptor expressed in HEK293 cells

>  <parent_molecule_chembl_id>  (146) 
CHEMBL234531

>  <canonical_smiles>  (146) 
COc1ccc(N2Cc3c(F)c(F)cc(Cl)c3C2=O)cc1OCCN1CCC(C)CC1

>  <standard_type>  (146) 
Ki

>  <standard_relation>  (146) 
=

>  <standard_value>  (146) 
125.89

>  <standard_units>  (146) 
nM

>  <target_pref_name>  (146) 
Serotonin 2b (5-HT2b) receptor

>  <target_chembl_id>  (146) 
CHEMBL1833

>  <target_organism>  (146) 
Homo sapiens

>  <pchembl_median>  (146) 
6.0

$$$$
CHEMBL395059
     RDKit          2D

 30 33  0  0  0  0  0  0  0  0999 V2000
   -1.2990  -10.3573    0.0000 C   0  0  0  0  0  0  0  0  0  0  0  0
    0.0000   -9.6073    0.0000 O   0  0  0  0  0  0  0  0  0  0  0  0
    0.0000   -8.1073    0.0000 C   0  0  0  0  0  0  0  0  0  0  0  0
   -1.2990   -7.3573    0.0000 C   0  0  0  0  0  0  0  0  0  0  0  0
   -1.2990   -5.8573    0.0000 C   0  0  0  0  0  0  0  0  0  0  0  0
   -0.0000   -5.1073    0.0000 C   0  0  0  0  0  0  0  0  0  0  0  0
   -0.0000   -3.6073    0.0000 N   0  0  0  0  0  0  0  0  0  0  0  0
    1.2135   -2.7256    0.0000 C   0  0  0  0  0  0  0  0  0  0  0  0
    2.6401   -3.1891    0.0000 O   0  0  0  0  0  0  0  0  0  0  0  0
    0.7500   -1.2990    0.0000 C   0  0  0  0  0  0  0  0  0  0  0  0
    1.5000    0.0000    0.0000 C   0  0  0  0  0  0  0  0  0  0  0  0
    3.0000    0.0000    0.0000 Cl  0  0  0  0  0  0  0  0  0  0  0  0
    0.7500    1.2990    0.0000 C   0  0  0  0  0  0  0  0  0  0  0  0
   -0.7500    1.2990    0.0000 C   0  0  0  0  0  0  0  0  0  0  0  0
   -1.5000    0.0000    0.0000 C   0  0  0  0  0  0  0  0  0  0  0  0
   -0.7500   -1.2990    0.0000 C   0  0  0  0  0  0  0  0  0  0  0  0
   -1.2135   -2.7256    0.0000 C   0  0  0  0  0  0  0  0  0  0  0  0
   -2.6401   -3.1891    0.0000 C   0  0  0  0  0  0  0  0  0  0  0  0
    1.2990   -5.8573    0.0000 C   0  0  0  0  0  0  0  0  0  0  0  0
    1.2990   -7.3573    0.0000 C   0  0  0  0  0  0  0  0  0  0  0  0
    2.5981   -8.1073    0.0000 O   0  0  0  0  0  0  0  0  0  0  0  0
    3.8971   -7.3573    0.0000 C   0  0  0  0  0  0  0  0  0  0  0  0
    5.1962   -8.1073    0.0000 C   0  0  0  0  0  0  0  0  0  0  0  0
    6.4952   -7.3573    0.0000 N   0  0  0  0  0  0  0  0  0  0  0  0
    7.7942   -8.1073    0.0000 C   0  0  0  0  0  0  0  0  0  0  0  0
    9.0933   -7.3573    0.0000 C   0  0  0  0  0  0  0  0  0  0  0  0
    9.0933   -5.8573    0.0000 C   0  0  0  0  0  0  0  0  0  0  0  0
   10.3923   -5.1073    0.0000 C   0  0  0  0  0  0  0  0  0  0  0  0
    7.7942   -5.1073    0.0000 C   0  0  0  0  0  0  0  0  0  0  0  0
    6.4952   -5.8573    0.0000 C   0  0  0  0  0  0  0  0  0  0  0  0
  1  2  1  0
  2  3  1  0
  3  4  2  0
  4  5  1  0
  5  6  2  0
  6  7  1  0
  7  8  1  0
  8  9  2  0
  8 10  1  0
 10 11  2  0
 11 12  1  0
 11 13  1  0
 13 14  2  0
 14 15  1  0
 15 16  2  0
 16 17  1  0
 17 18  1  0
  6 19  1  0
 19 20  2  0
 20 21  1  0
 21 22  1  0
 22 23  1  0
 23 24  1  0
 24 25  1  0
 25 26  1  0
 26 27  1  0
 27 28  1  0
 27 29  1  0
 29 30  1  0
 20  3  1  0
 30 24  1  0
 17  7  1  0
 16 10  1  0
M  END
>  <assay_chembl_id>  (147) 
CHEMBL889870

>  <assay_description>  (147) 
Displacement of [3H]5-HT from 5HT2B receptor expressed in HEK293 cells

>  <parent_molecule_chembl_id>  (147) 
CHEMBL395059

>  <canonical_smiles>  (147) 
COc1ccc(N2C(=O)c3c(Cl)cccc3C2C)cc1OCCN1CCC(C)CC1

>  <standard_type>  (147) 
Ki

>  <standard_relation>  (147) 
=

>  <standard_value>  (147) 
199.53

>  <standard_units>  (147) 
nM

>  <target_pref_name>  (147) 
Serotonin 2b (5-HT2b) receptor

>  <target_chembl_id>  (147) 
CHEMBL1833

>  <target_organism>  (147) 
Homo sapiens

>  <pchembl_median>  (147) 
5.8

$$$$
CHEMBL396748
     RDKit          2D

 32 35  0  0  0  0  0  0  0  0999 V2000
   -1.2990  -10.3573    0.0000 C   0  0  0  0  0  0  0  0  0  0  0  0
    0.0000   -9.6073    0.0000 O   0  0  0  0  0  0  0  0  0  0  0  0
    0.0000   -8.1073    0.0000 C   0  0  0  0  0  0  0  0  0  0  0  0
   -1.2990   -7.3573    0.0000 C   0  0  0  0  0  0  0  0  0  0  0  0
   -1.2990   -5.8573    0.0000 C   0  0  0  0  0  0  0  0  0  0  0  0
   -0.0000   -5.1073    0.0000 C   0  0  0  0  0  0  0  0  0  0  0  0
   -0.0000   -3.6073    0.0000 N   0  0  0  0  0  0  0  0  0  0  0  0
    1.2135   -2.7256    0.0000 C   0  0  0  0  0  0  0  0  0  0  0  0
    0.7500   -1.2990    0.0000 C   0  0  0  0  0  0  0  0  0  0  0  0
    1.5000    0.0000    0.0000 C   0  0  0  0  0  0  0  0  0  0  0  0
    0.7500    1.2990    0.0000 C   0  0  0  0  0  0  0  0  0  0  0  0
   -0.7500    1.2990    0.0000 C   0  0  0  0  0  0  0  0  0  0  0  0
   -1.5000    0.0000    0.0000 C   0  0  0  0  0  0  0  0  0  0  0  0
   -3.0000    0.0000    0.0000 C   0  0  0  0  0  0  0  0  0  0  0  0
   -4.5000    0.0000    0.0000 F   0  0  0  0  0  0  0  0  0  0  0  0
   -3.0000    1.5000    0.0000 F   0  0  0  0  0  0  0  0  0  0  0  0
   -3.0000   -1.5000    0.0000 F   0  0  0  0  0  0  0  0  0  0  0  0
   -0.7500   -1.2990    0.0000 C   0  0  0  0  0  0  0  0  0  0  0  0
   -1.2135   -2.7256    0.0000 C   0  0  0  0  0  0  0  0  0  0  0  0
   -2.6401   -3.1891    0.0000 O   0  0  0  0  0  0  0  0  0  0  0  0
    1.2990   -5.8573    0.0000 C   0  0  0  0  0  0  0  0  0  0  0  0
    1.2990   -7.3573    0.0000 C   0  0  0  0  0  0  0  0  0  0  0  0
    2.5981   -8.1073    0.0000 O   0  0  0  0  0  0  0  0  0  0  0  0
    3.8971   -7.3573    0.0000 C   0  0  0  0  0  0  0  0  0  0  0  0
    5.1962   -8.1073    0.0000 C   0  0  0  0  0  0  0  0  0  0  0  0
    6.4952   -7.3573    0.0000 N   0  0  0  0  0  0  0  0  0  0  0  0
    7.7942   -8.1073    0.0000 C   0  0  0  0  0  0  0  0  0  0  0  0
    9.0933   -7.3573    0.0000 C   0  0  0  0  0  0  0  0  0  0  0  0
    9.0933   -5.8573    0.0000 C   0  0  0  0  0  0  0  0  0  0  0  0
   10.3923   -5.1073    0.0000 C   0  0  0  0  0  0  0  0  0  0  0  0
    7.7942   -5.1073    0.0000 C   0  0  0  0  0  0  0  0  0  0  0  0
    6.4952   -5.8573    0.0000 C   0  0  0  0  0  0  0  0  0  0  0  0
  1  2  1  0
  2  3  1  0
  3  4  2  0
  4  5  1  0
  5  6  2  0
  6  7  1  0
  7  8  1  0
  8  9  1  0
  9 10  2  0
 10 11  1  0
 11 12  2  0
 12 13  1  0
 13 14  1  0
 14 15  1  0
 14 16  1  0
 14 17  1  0
 13 18  2  0
 18 19  1  0
 19 20  2  0
  6 21  1  0
 21 22  2  0
 22 23  1  0
 23 24  1  0
 24 25  1  0
 25 26  1  0
 26 27  1  0
 27 28  1  0
 28 29  1  0
 29 30  1  0
 29 31  1  0
 31 32  1  0
 22  3  1  0
 32 26  1  0
 19  7  1  0
 18  9  1  0
M  END
>  <assay_chembl_id>  (148) 
CHEMBL889870

>  <assay_description>  (148) 
Displacement of [3H]5-HT from 5HT2B receptor expressed in HEK293 cells

>  <parent_molecule_chembl_id>  (148) 
CHEMBL396748

>  <canonical_smiles>  (148) 
COc1ccc(N2Cc3cccc(C(F)(F)F)c3C2=O)cc1OCCN1CCC(C)CC1

>  <standard_type>  (148) 
Ki

>  <standard_relation>  (148) 
=

>  <standard_value>  (148) 
501.19

>  <standard_units>  (148) 
nM

>  <target_pref_name>  (148) 
Serotonin 2b (5-HT2b) receptor

>  <target_chembl_id>  (148) 
CHEMBL1833

>  <target_organism>  (148) 
Homo sapiens

>  <pchembl_median>  (148) 
6.3

$$$$
CHEMBL234006
     RDKit          2D

 29 32  0  0  0  0  0  0  0  0999 V2000
   -1.2990  -10.3573    0.0000 C   0  0  0  0  0  0  0  0  0  0  0  0
    0.0000   -9.6073    0.0000 O   0  0  0  0  0  0  0  0  0  0  0  0
    0.0000   -8.1073    0.0000 C   0  0  0  0  0  0  0  0  0  0  0  0
   -1.2990   -7.3573    0.0000 C   0  0  0  0  0  0  0  0  0  0  0  0
   -1.2990   -5.8573    0.0000 C   0  0  0  0  0  0  0  0  0  0  0  0
   -0.0000   -5.1073    0.0000 C   0  0  0  0  0  0  0  0  0  0  0  0
   -0.0000   -3.6073    0.0000 N   0  0  0  0  0  0  0  0  0  0  0  0
    1.2135   -2.7256    0.0000 C   0  0  0  0  0  0  0  0  0  0  0  0
    0.7500   -1.2990    0.0000 C   0  0  0  0  0  0  0  0  0  0  0  0
    1.5000    0.0000    0.0000 C   0  0  0  0  0  0  0  0  0  0  0  0
    0.7500    1.2990    0.0000 C   0  0  0  0  0  0  0  0  0  0  0  0
   -0.7500    1.2990    0.0000 C   0  0  0  0  0  0  0  0  0  0  0  0
   -1.5000    0.0000    0.0000 C   0  0  0  0  0  0  0  0  0  0  0  0
   -3.0000    0.0000    0.0000 C   0  0  0  0  0  0  0  0  0  0  0  0
   -0.7500   -1.2990    0.0000 C   0  0  0  0  0  0  0  0  0  0  0  0
   -1.2135   -2.7256    0.0000 C   0  0  0  0  0  0  0  0  0  0  0  0
   -2.6401   -3.1891    0.0000 O   0  0  0  0  0  0  0  0  0  0  0  0
    1.2990   -5.8573    0.0000 C   0  0  0  0  0  0  0  0  0  0  0  0
    1.2990   -7.3573    0.0000 C   0  0  0  0  0  0  0  0  0  0  0  0
    2.5981   -8.1073    0.0000 O   0  0  0  0  0  0  0  0  0  0  0  0
    3.8971   -7.3573    0.0000 C   0  0  0  0  0  0  0  0  0  0  0  0
    5.1962   -8.1073    0.0000 C   0  0  0  0  0  0  0  0  0  0  0  0
    6.4952   -7.3573    0.0000 N   0  0  0  0  0  0  0  0  0  0  0  0
    7.7942   -8.1073    0.0000 C   0  0  0  0  0  0  0  0  0  0  0  0
    9.0933   -7.3573    0.0000 C   0  0  0  0  0  0  0  0  0  0  0  0
    9.0933   -5.8573    0.0000 C   0  0  0  0  0  0  0  0  0  0  0  0
   10.3923   -5.1073    0.0000 C   0  0  0  0  0  0  0  0  0  0  0  0
    7.7942   -5.1073    0.0000 C   0  0  0  0  0  0  0  0  0  0  0  0
    6.4952   -5.8573    0.0000 C   0  0  0  0  0  0  0  0  0  0  0  0
  1  2  1  0
  2  3  1  0
  3  4  2  0
  4  5  1  0
  5  6  2  0
  6  7  1  0
  7  8  1  0
  8  9  1  0
  9 10  2  0
 10 11  1  0
 11 12  2  0
 12 13  1  0
 13 14  1  0
 13 15  2  0
 15 16  1  0
 16 17  2  0
  6 18  1  0
 18 19  2  0
 19 20  1  0
 20 21  1  0
 21 22  1  0
 22 23  1  0
 23 24  1  0
 24 25  1  0
 25 26  1  0
 26 27  1  0
 26 28  1  0
 28 29  1  0
 19  3  1  0
 29 23  1  0
 16  7  1  0
 15  9  1  0
M  END
>  <assay_chembl_id>  (149) 
CHEMBL889870

>  <assay_description>  (149) 
Displacement of [3H]5-HT from 5HT2B receptor expressed in HEK293 cells

>  <parent_molecule_chembl_id>  (149) 
CHEMBL234006

>  <canonical_smiles>  (149) 
COc1ccc(N2Cc3cccc(C)c3C2=O)cc1OCCN1CCC(C)CC1

>  <standard_type>  (149) 
Ki

>  <standard_relation>  (149) 
=

>  <standard_value>  (149) 
199.53

>  <standard_units>  (149) 
nM

>  <target_pref_name>  (149) 
Serotonin 2b (5-HT2b) receptor

>  <target_chembl_id>  (149) 
CHEMBL1833

>  <target_organism>  (149) 
Homo sapiens

>  <pchembl_median>  (149) 
6.2

$$$$
CHEMBL234109
     RDKit          2D

 29 32  0  0  0  0  0  0  0  0999 V2000
   -1.2990  -10.3573    0.0000 C   0  0  0  0  0  0  0  0  0  0  0  0
    0.0000   -9.6073    0.0000 O   0  0  0  0  0  0  0  0  0  0  0  0
    0.0000   -8.1073    0.0000 C   0  0  0  0  0  0  0  0  0  0  0  0
   -1.2990   -7.3573    0.0000 C   0  0  0  0  0  0  0  0  0  0  0  0
   -1.2990   -5.8573    0.0000 C   0  0  0  0  0  0  0  0  0  0  0  0
   -0.0000   -5.1073    0.0000 C   0  0  0  0  0  0  0  0  0  0  0  0
   -0.0000   -3.6073    0.0000 N   0  0  0  0  0  0  0  0  0  0  0  0
    1.2135   -2.7256    0.0000 C   0  0  0  0  0  0  0  0  0  0  0  0
    0.7500   -1.2990    0.0000 C   0  0  0  0  0  0  0  0  0  0  0  0
    1.5000    0.0000    0.0000 C   0  0  0  0  0  0  0  0  0  0  0  0
    0.7500    1.2990    0.0000 C   0  0  0  0  0  0  0  0  0  0  0  0
   -0.7500    1.2990    0.0000 C   0  0  0  0  0  0  0  0  0  0  0  0
   -1.5000    0.0000    0.0000 C   0  0  0  0  0  0  0  0  0  0  0  0
   -3.0000    0.0000    0.0000 Br  0  0  0  0  0  0  0  0  0  0  0  0
   -0.7500   -1.2990    0.0000 C   0  0  0  0  0  0  0  0  0  0  0  0
   -1.2135   -2.7256    0.0000 C   0  0  0  0  0  0  0  0  0  0  0  0
   -2.6401   -3.1891    0.0000 O   0  0  0  0  0  0  0  0  0  0  0  0
    1.2990   -5.8573    0.0000 C   0  0  0  0  0  0  0  0  0  0  0  0
    1.2990   -7.3573    0.0000 C   0  0  0  0  0  0  0  0  0  0  0  0
    2.5981   -8.1073    0.0000 O   0  0  0  0  0  0  0  0  0  0  0  0
    3.8971   -7.3573    0.0000 C   0  0  0  0  0  0  0  0  0  0  0  0
    5.1962   -8.1073    0.0000 C   0  0  0  0  0  0  0  0  0  0  0  0
    6.4952   -7.3573    0.0000 N   0  0  0  0  0  0  0  0  0  0  0  0
    7.7942   -8.1073    0.0000 C   0  0  0  0  0  0  0  0  0  0  0  0
    9.0933   -7.3573    0.0000 C   0  0  0  0  0  0  0  0  0  0  0  0
    9.0933   -5.8573    0.0000 C   0  0  0  0  0  0  0  0  0  0  0  0
   10.3923   -5.1073    0.0000 C   0  0  0  0  0  0  0  0  0  0  0  0
    7.7942   -5.1073    0.0000 C   0  0  0  0  0  0  0  0  0  0  0  0
    6.4952   -5.8573    0.0000 C   0  0  0  0  0  0  0  0  0  0  0  0
  1  2  1  0
  2  3  1  0
  3  4  2  0
  4  5  1  0
  5  6  2  0
  6  7  1  0
  7  8  1  0
  8  9  1  0
  9 10  2  0
 10 11  1  0
 11 12  2  0
 12 13  1  0
 13 14  1  0
 13 15  2  0
 15 16  1  0
 16 17  2  0
  6 18  1  0
 18 19  2  0
 19 20  1  0
 20 21  1  0
 21 22  1  0
 22 23  1  0
 23 24  1  0
 24 25  1  0
 25 26  1  0
 26 27  1  0
 26 28  1  0
 28 29  1  0
 19  3  1  0
 29 23  1  0
 16  7  1  0
 15  9  1  0
M  END
>  <assay_chembl_id>  (150) 
CHEMBL889870

>  <assay_description>  (150) 
Displacement of [3H]5-HT from 5HT2B receptor expressed in HEK293 cells

>  <parent_molecule_chembl_id>  (150) 
CHEMBL234109

>  <canonical_smiles>  (150) 
COc1ccc(N2Cc3cccc(Br)c3C2=O)cc1OCCN1CCC(C)CC1

>  <standard_type>  (150) 
Ki

>  <standard_relation>  (150) 
=

>  <standard_value>  (150) 
158.49

>  <standard_units>  (150) 
nM

>  <target_pref_name>  (150) 
Serotonin 2b (5-HT2b) receptor

>  <target_chembl_id>  (150) 
CHEMBL1833

>  <target_organism>  (150) 
Homo sapiens

>  <pchembl_median>  (150) 
6.0

$$$$
CHEMBL396747
     RDKit          2D

 29 32  0  0  0  0  0  0  0  0999 V2000
   -1.2990  -10.3573    0.0000 C   0  0  0  0  0  0  0  0  0  0  0  0
    0.0000   -9.6073    0.0000 O   0  0  0  0  0  0  0  0  0  0  0  0
    0.0000   -8.1073    0.0000 C   0  0  0  0  0  0  0  0  0  0  0  0
   -1.2990   -7.3573    0.0000 C   0  0  0  0  0  0  0  0  0  0  0  0
   -1.2990   -5.8573    0.0000 C   0  0  0  0  0  0  0  0  0  0  0  0
   -0.0000   -5.1073    0.0000 C   0  0  0  0  0  0  0  0  0  0  0  0
   -0.0000   -3.6073    0.0000 N   0  0  0  0  0  0  0  0  0  0  0  0
    1.2135   -2.7256    0.0000 C   0  0  0  0  0  0  0  0  0  0  0  0
    0.7500   -1.2990    0.0000 C   0  0  0  0  0  0  0  0  0  0  0  0
    1.5000    0.0000    0.0000 C   0  0  0  0  0  0  0  0  0  0  0  0
    0.7500    1.2990    0.0000 C   0  0  0  0  0  0  0  0  0  0  0  0
   -0.7500    1.2990    0.0000 C   0  0  0  0  0  0  0  0  0  0  0  0
   -1.5000    0.0000    0.0000 C   0  0  0  0  0  0  0  0  0  0  0  0
   -3.0000    0.0000    0.0000 Cl  0  0  0  0  0  0  0  0  0  0  0  0
   -0.7500   -1.2990    0.0000 C   0  0  0  0  0  0  0  0  0  0  0  0
   -1.2135   -2.7256    0.0000 C   0  0  0  0  0  0  0  0  0  0  0  0
   -2.6401   -3.1891    0.0000 O   0  0  0  0  0  0  0  0  0  0  0  0
    1.2990   -5.8573    0.0000 C   0  0  0  0  0  0  0  0  0  0  0  0
    1.2990   -7.3573    0.0000 C   0  0  0  0  0  0  0  0  0  0  0  0
    2.5981   -8.1073    0.0000 O   0  0  0  0  0  0  0  0  0  0  0  0
    3.8971   -7.3573    0.0000 C   0  0  0  0  0  0  0  0  0  0  0  0
    5.1962   -8.1073    0.0000 C   0  0  0  0  0  0  0  0  0  0  0  0
    6.4952   -7.3573    0.0000 N   0  0  0  0  0  0  0  0  0  0  0  0
    7.7942   -8.1073    0.0000 C   0  0  0  0  0  0  0  0  0  0  0  0
    9.0933   -7.3573    0.0000 C   0  0  0  0  0  0  0  0  0  0  0  0
    9.0933   -5.8573    0.0000 C   0  0  0  0  0  0  0  0  0  0  0  0
   10.3923   -5.1073    0.0000 C   0  0  0  0  0  0  0  0  0  0  0  0
    7.7942   -5.1073    0.0000 C   0  0  0  0  0  0  0  0  0  0  0  0
    6.4952   -5.8573    0.0000 C   0  0  0  0  0  0  0  0  0  0  0  0
  1  2  1  0
  2  3  1  0
  3  4  2  0
  4  5  1  0
  5  6  2  0
  6  7  1  0
  7  8  1  0
  8  9  1  0
  9 10  2  0
 10 11  1  0
 11 12  2  0
 12 13  1  0
 13 14  1  0
 13 15  2  0
 15 16  1  0
 16 17  2  0
  6 18  1  0
 18 19  2  0
 19 20  1  0
 20 21  1  0
 21 22  1  0
 22 23  1  0
 23 24  1  0
 24 25  1  0
 25 26  1  0
 26 27  1  0
 26 28  1  0
 28 29  1  0
 19  3  1  0
 29 23  1  0
 16  7  1  0
 15  9  1  0
M  END
>  <assay_chembl_id>  (151) 
CHEMBL889870

>  <assay_description>  (151) 
Displacement of [3H]5-HT from 5HT2B receptor expressed in HEK293 cells

>  <parent_molecule_chembl_id>  (151) 
CHEMBL396747

>  <canonical_smiles>  (151) 
COc1ccc(N2Cc3cccc(Cl)c3C2=O)cc1OCCN1CCC(C)CC1

>  <standard_type>  (151) 
Ki

>  <standard_relation>  (151) 
=

>  <standard_value>  (151) 
125.89

>  <standard_units>  (151) 
nM

>  <target_pref_name>  (151) 
Serotonin 2b (5-HT2b) receptor

>  <target_chembl_id>  (151) 
CHEMBL1833

>  <target_organism>  (151) 
Homo sapiens

>  <pchembl_median>  (151) 
5.9

$$$$
CHEMBL396505
     RDKit          2D

 28 31  0  0  0  0  0  0  0  0999 V2000
   -1.2990  -10.3573    0.0000 C   0  0  0  0  0  0  0  0  0  0  0  0
    0.0000   -9.6073    0.0000 O   0  0  0  0  0  0  0  0  0  0  0  0
    0.0000   -8.1073    0.0000 C   0  0  0  0  0  0  0  0  0  0  0  0
   -1.2990   -7.3573    0.0000 C   0  0  0  0  0  0  0  0  0  0  0  0
   -1.2990   -5.8573    0.0000 C   0  0  0  0  0  0  0  0  0  0  0  0
   -0.0000   -5.1073    0.0000 C   0  0  0  0  0  0  0  0  0  0  0  0
   -0.0000   -3.6073    0.0000 N   0  0  0  0  0  0  0  0  0  0  0  0
    1.2135   -2.7256    0.0000 C   0  0  0  0  0  0  0  0  0  0  0  0
    0.7500   -1.2990    0.0000 C   0  0  0  0  0  0  0  0  0  0  0  0
    1.5000    0.0000    0.0000 C   0  0  0  0  0  0  0  0  0  0  0  0
    0.7500    1.2990    0.0000 C   0  0  0  0  0  0  0  0  0  0  0  0
   -0.7500    1.2990    0.0000 C   0  0  0  0  0  0  0  0  0  0  0  0
   -1.5000    0.0000    0.0000 C   0  0  0  0  0  0  0  0  0  0  0  0
   -3.0000    0.0000    0.0000 Cl  0  0  0  0  0  0  0  0  0  0  0  0
   -0.7500   -1.2990    0.0000 C   0  0  0  0  0  0  0  0  0  0  0  0
   -1.2135   -2.7256    0.0000 C   0  0  0  0  0  0  0  0  0  0  0  0
   -2.6401   -3.1891    0.0000 O   0  0  0  0  0  0  0  0  0  0  0  0
    1.2990   -5.8573    0.0000 C   0  0  0  0  0  0  0  0  0  0  0  0
    1.2990   -7.3573    0.0000 C   0  0  0  0  0  0  0  0  0  0  0  0
    2.5981   -8.1073    0.0000 O   0  0  0  0  0  0  0  0  0  0  0  0
    3.8971   -7.3573    0.0000 C   0  0  0  0  0  0  0  0  0  0  0  0
    5.1962   -8.1073    0.0000 C   0  0  0  0  0  0  0  0  0  0  0  0
    6.4952   -7.3573    0.0000 N   0  0  0  0  0  0  0  0  0  0  0  0
    7.7942   -8.1073    0.0000 C   0  0  0  0  0  0  0  0  0  0  0  0
    9.0933   -7.3573    0.0000 C   0  0  0  0  0  0  0  0  0  0  0  0
    9.0933   -5.8573    0.0000 C   0  0  0  0  0  0  0  0  0  0  0  0
    7.7942   -5.1073    0.0000 C   0  0  0  0  0  0  0  0  0  0  0  0
    6.4952   -5.8573    0.0000 C   0  0  0  0  0  0  0  0  0  0  0  0
  1  2  1  0
  2  3  1  0
  3  4  2  0
  4  5  1  0
  5  6  2  0
  6  7  1  0
  7  8  1  0
  8  9  1  0
  9 10  2  0
 10 11  1  0
 11 12  2  0
 12 13  1  0
 13 14  1  0
 13 15  2  0
 15 16  1  0
 16 17  2  0
  6 18  1  0
 18 19  2  0
 19 20  1  0
 20 21  1  0
 21 22  1  0
 22 23  1  0
 23 24  1  0
 24 25  1  0
 25 26  1  0
 26 27  1  0
 27 28  1  0
 19  3  1  0
 28 23  1  0
 16  7  1  0
 15  9  1  0
M  END
>  <assay_chembl_id>  (152) 
CHEMBL889870

>  <assay_description>  (152) 
Displacement of [3H]5-HT from 5HT2B receptor expressed in HEK293 cells

>  <parent_molecule_chembl_id>  (152) 
CHEMBL396505

>  <canonical_smiles>  (152) 
COc1ccc(N2Cc3cccc(Cl)c3C2=O)cc1OCCN1CCCCC1

>  <standard_type>  (152) 
Ki

>  <standard_relation>  (152) 
=

>  <standard_value>  (152) 
316.23

>  <standard_units>  (152) 
nM

>  <target_pref_name>  (152) 
Serotonin 2b (5-HT2b) receptor

>  <target_chembl_id>  (152) 
CHEMBL1833

>  <target_organism>  (152) 
Homo sapiens

>  <pchembl_median>  (152) 
6.48

$$$$
CHEMBL238519
     RDKit          2D

 34 38  0  0  0  0  0  0  0  0999 V2000
    3.0000    0.0000    0.0000 C   0  0  0  0  0  0  0  0  0  0  0  0
    1.5000    0.0000    0.0000 C   0  0  0  0  0  0  0  0  0  0  0  0
    0.7500   -1.2990    0.0000 C   0  0  0  0  0  0  0  0  0  0  0  0
   -0.7500   -1.2990    0.0000 C   0  0  0  0  0  0  0  0  0  0  0  0
   -1.5000    0.0000    0.0000 C   0  0  0  0  0  0  0  0  0  0  0  0
   -3.0000    0.0000    0.0000 C   0  0  0  0  0  0  0  0  0  0  0  0
   -3.7500   -1.2990    0.0000 O   0  0  0  0  0  0  0  0  0  0  0  0
   -5.2500   -1.2990    0.0000 C   0  0  0  0  0  0  0  0  0  0  0  0
   -6.0000   -2.5981    0.0000 C   0  0  0  0  0  0  0  0  0  0  0  0
   -7.5000   -2.5981    0.0000 N   0  0  0  0  0  0  0  0  0  0  0  0
   -8.2500   -1.2990    0.0000 C   0  0  0  0  0  0  0  0  0  0  0  0
   -9.7500   -1.2990    0.0000 C   0  0  0  0  0  0  0  0  0  0  0  0
  -10.5000   -2.5981    0.0000 C   0  0  0  0  0  0  0  0  0  0  0  0
  -12.0000   -2.5981    0.0000 C   0  0  0  0  0  0  0  0  0  0  0  0
  -12.7500   -1.2990    0.0000 C   0  0  0  0  0  0  0  0  0  0  0  0
  -12.0000    0.0000    0.0000 C   0  0  0  0  0  0  0  0  0  0  0  0
  -12.7500    1.2990    0.0000 C   0  0  0  0  0  0  0  0  0  0  0  0
  -14.2500    1.2990    0.0000 C   0  0  0  0  0  0  0  0  0  0  0  0
  -15.0000    0.0000    0.0000 C   0  0  0  0  0  0  0  0  0  0  0  0
  -14.2500   -1.2990    0.0000 C   0  0  0  0  0  0  0  0  0  0  0  0
  -15.0000   -2.5981    0.0000 F   0  0  0  0  0  0  0  0  0  0  0  0
  -16.5000    0.0000    0.0000 N   0  0  0  0  0  0  0  0  0  0  0  0
  -17.2500    1.2990    0.0000 C   0  0  0  0  0  0  0  0  0  0  0  0
  -18.7500    1.2990    0.0000 O   0  0  0  0  0  0  0  0  0  0  0  0
  -16.5000    2.5981    0.0000 C   0  0  0  0  0  0  0  0  0  0  0  0
  -15.0000    2.5981    0.0000 O   0  0  0  0  0  0  0  0  0  0  0  0
   -9.7500   -3.8971    0.0000 C   0  0  0  0  0  0  0  0  0  0  0  0
   -8.2500   -3.8971    0.0000 C   0  0  0  0  0  0  0  0  0  0  0  0
   -3.7500    1.2990    0.0000 C   0  0  0  0  0  0  0  0  0  0  0  0
   -3.0000    2.5981    0.0000 C   0  0  0  0  0  0  0  0  0  0  0  0
   -3.7500    3.8971    0.0000 Cl  0  0  0  0  0  0  0  0  0  0  0  0
   -1.5000    2.5981    0.0000 C   0  0  0  0  0  0  0  0  0  0  0  0
   -0.7500    1.2990    0.0000 C   0  0  0  0  0  0  0  0  0  0  0  0
    0.7500    1.2990    0.0000 N   0  0  0  0  0  0  0  0  0  0  0  0
  1  2  1  0
  2  3  2  0
  3  4  1  0
  4  5  2  0
  5  6  1  0
  6  7  1  0
  7  8  1  0
  8  9  1  0
  9 10  1  0
 10 11  1  0
 11 12  1  0
 12 13  1  0
 13 14  1  0
 14 15  1  0
 15 16  2  0
 16 17  1  0
 17 18  2  0
 18 19  1  0
 19 20  2  0
 20 21  1  0
 19 22  1  0
 22 23  1  0
 23 24  2  0
 23 25  1  0
 25 26  1  0
 13 27  1  0
 27 28  1  0
  6 29  2  0
 29 30  1  0
 30 31  1  0
 30 32  2  0
 32 33  1  0
 33 34  2  0
 34  2  1  0
 33  5  1  0
 28 10  1  0
 20 15  1  0
 26 18  1  0
M  END
>  <assay_chembl_id>  (153) 
CHEMBL885596

>  <assay_description>  (153) 
Displacement of [3H]5-HT from human cloned 5HT2B receptor expressed in HEK293 cells

>  <parent_molecule_chembl_id>  (153) 
CHEMBL238519

>  <canonical_smiles>  (153) 
Cc1ccc2c(OCCN3CCC(Cc4ccc5c(c4F)NC(=O)CO5)CC3)cc(Cl)cc2n1

>  <standard_type>  (153) 
Ki

>  <standard_relation>  (153) 
=

>  <standard_value>  (153) 
1584.89

>  <standard_units>  (153) 
nM

>  <target_pref_name>  (153) 
Serotonin 2b (5-HT2b) receptor

>  <target_chembl_id>  (153) 
CHEMBL1833

>  <target_organism>  (153) 
Homo sapiens

>  <pchembl_median>  (153) 
6.79

$$$$
CHEMBL238732
     RDKit          2D

 34 38  0  0  0  0  0  0  0  0999 V2000
    3.0000    0.0000    0.0000 C   0  0  0  0  0  0  0  0  0  0  0  0
    1.5000    0.0000    0.0000 C   0  0  0  0  0  0  0  0  0  0  0  0
    0.7500   -1.2990    0.0000 C   0  0  0  0  0  0  0  0  0  0  0  0
   -0.7500   -1.2990    0.0000 C   0  0  0  0  0  0  0  0  0  0  0  0
   -1.5000    0.0000    0.0000 C   0  0  0  0  0  0  0  0  0  0  0  0
   -3.0000    0.0000    0.0000 C   0  0  0  0  0  0  0  0  0  0  0  0
   -3.7500   -1.2990    0.0000 O   0  0  0  0  0  0  0  0  0  0  0  0
   -5.2500   -1.2990    0.0000 C   0  0  0  0  0  0  0  0  0  0  0  0
   -6.0000   -2.5981    0.0000 C   0  0  0  0  0  0  0  0  0  0  0  0
   -7.5000   -2.5981    0.0000 N   0  0  0  0  0  0  0  0  0  0  0  0
   -8.2500   -1.2990    0.0000 C   0  0  0  0  0  0  0  0  0  0  0  0
   -9.7500   -1.2990    0.0000 C   0  0  0  0  0  0  0  0  0  0  0  0
  -10.5000   -2.5981    0.0000 C   0  0  0  0  0  0  0  0  0  0  0  0
  -12.0000   -2.5981    0.0000 C   0  0  0  0  0  0  0  0  0  0  0  0
  -12.7500   -1.2990    0.0000 C   0  0  0  0  0  0  0  0  0  0  0  0
  -12.0000    0.0000    0.0000 C   0  0  0  0  0  0  0  0  0  0  0  0
  -12.7500    1.2990    0.0000 C   0  0  0  0  0  0  0  0  0  0  0  0
  -12.0000    2.5981    0.0000 F   0  0  0  0  0  0  0  0  0  0  0  0
  -14.2500    1.2990    0.0000 C   0  0  0  0  0  0  0  0  0  0  0  0
  -15.0000    0.0000    0.0000 C   0  0  0  0  0  0  0  0  0  0  0  0
  -14.2500   -1.2990    0.0000 C   0  0  0  0  0  0  0  0  0  0  0  0
  -16.5000    0.0000    0.0000 N   0  0  0  0  0  0  0  0  0  0  0  0
  -17.2500    1.2990    0.0000 C   0  0  0  0  0  0  0  0  0  0  0  0
  -18.7500    1.2990    0.0000 O   0  0  0  0  0  0  0  0  0  0  0  0
  -16.5000    2.5981    0.0000 C   0  0  0  0  0  0  0  0  0  0  0  0
  -15.0000    2.5981    0.0000 O   0  0  0  0  0  0  0  0  0  0  0  0
   -9.7500   -3.8971    0.0000 C   0  0  0  0  0  0  0  0  0  0  0  0
   -8.2500   -3.8971    0.0000 C   0  0  0  0  0  0  0  0  0  0  0  0
   -3.7500    1.2990    0.0000 C   0  0  0  0  0  0  0  0  0  0  0  0
   -3.0000    2.5981    0.0000 C   0  0  0  0  0  0  0  0  0  0  0  0
   -3.7500    3.8971    0.0000 Cl  0  0  0  0  0  0  0  0  0  0  0  0
   -1.5000    2.5981    0.0000 C   0  0  0  0  0  0  0  0  0  0  0  0
   -0.7500    1.2990    0.0000 C   0  0  0  0  0  0  0  0  0  0  0  0
    0.7500    1.2990    0.0000 N   0  0  0  0  0  0  0  0  0  0  0  0
  1  2  1  0
  2  3  2  0
  3  4  1  0
  4  5  2  0
  5  6  1  0
  6  7  1  0
  7  8  1  0
  8  9  1  0
  9 10  1  0
 10 11  1  0
 11 12  1  0
 12 13  1  0
 13 14  1  0
 14 15  1  0
 15 16  2  0
 16 17  1  0
 17 18  1  0
 17 19  2  0
 19 20  1  0
 20 21  2  0
 20 22  1  0
 22 23  1  0
 23 24  2  0
 23 25  1  0
 25 26  1  0
 13 27  1  0
 27 28  1  0
  6 29  2  0
 29 30  1  0
 30 31  1  0
 30 32  2  0
 32 33  1  0
 33 34  2  0
 34  2  1  0
 33  5  1  0
 28 10  1  0
 21 15  1  0
 26 19  1  0
M  END
>  <assay_chembl_id>  (154) 
CHEMBL885596

>  <assay_description>  (154) 
Displacement of [3H]5-HT from human cloned 5HT2B receptor expressed in HEK293 cells

>  <parent_molecule_chembl_id>  (154) 
CHEMBL238732

>  <canonical_smiles>  (154) 
Cc1ccc2c(OCCN3CCC(Cc4cc(F)c5c(c4)NC(=O)CO5)CC3)cc(Cl)cc2n1

>  <standard_type>  (154) 
Ki

>  <standard_relation>  (154) 
=

>  <standard_value>  (154) 
3162.28

>  <standard_units>  (154) 
nM

>  <target_pref_name>  (154) 
Serotonin 2b (5-HT2b) receptor

>  <target_chembl_id>  (154) 
CHEMBL1833

>  <target_organism>  (154) 
Homo sapiens

>  <pchembl_median>  (154) 
6.87

$$$$
CHEMBL238520
     RDKit          2D

 34 38  0  0  0  0  0  0  0  0999 V2000
    3.0000    0.0000    0.0000 C   0  0  0  0  0  0  0  0  0  0  0  0
    1.5000    0.0000    0.0000 C   0  0  0  0  0  0  0  0  0  0  0  0
    0.7500   -1.2990    0.0000 C   0  0  0  0  0  0  0  0  0  0  0  0
   -0.7500   -1.2990    0.0000 C   0  0  0  0  0  0  0  0  0  0  0  0
   -1.5000    0.0000    0.0000 C   0  0  0  0  0  0  0  0  0  0  0  0
   -3.0000    0.0000    0.0000 C   0  0  0  0  0  0  0  0  0  0  0  0
   -3.7500   -1.2990    0.0000 O   0  0  0  0  0  0  0  0  0  0  0  0
   -5.2500   -1.2990    0.0000 C   0  0  0  0  0  0  0  0  0  0  0  0
   -6.0000   -2.5981    0.0000 C   0  0  0  0  0  0  0  0  0  0  0  0
   -7.5000   -2.5981    0.0000 N   0  0  0  0  0  0  0  0  0  0  0  0
   -8.2500   -1.2990    0.0000 C   0  0  0  0  0  0  0  0  0  0  0  0
   -9.7500   -1.2990    0.0000 C   0  0  0  0  0  0  0  0  0  0  0  0
  -10.5000   -2.5981    0.0000 C   0  0  0  0  0  0  0  0  0  0  0  0
  -12.0000   -2.5981    0.0000 C   0  0  0  0  0  0  0  0  0  0  0  0
  -12.7500   -1.2990    0.0000 C   0  0  0  0  0  0  0  0  0  0  0  0
  -14.2500   -1.2990    0.0000 C   0  0  0  0  0  0  0  0  0  0  0  0
  -15.0000    0.0000    0.0000 C   0  0  0  0  0  0  0  0  0  0  0  0
  -14.2500    1.2990    0.0000 C   0  0  0  0  0  0  0  0  0  0  0  0
  -12.7500    1.2990    0.0000 C   0  0  0  0  0  0  0  0  0  0  0  0
  -12.0000    0.0000    0.0000 C   0  0  0  0  0  0  0  0  0  0  0  0
  -10.5000    0.0000    0.0000 F   0  0  0  0  0  0  0  0  0  0  0  0
  -15.0000    2.5981    0.0000 O   0  0  0  0  0  0  0  0  0  0  0  0
  -16.5000    2.5981    0.0000 C   0  0  0  0  0  0  0  0  0  0  0  0
  -17.2500    1.2990    0.0000 C   0  0  0  0  0  0  0  0  0  0  0  0
  -18.7500    1.2990    0.0000 O   0  0  0  0  0  0  0  0  0  0  0  0
  -16.5000    0.0000    0.0000 N   0  0  0  0  0  0  0  0  0  0  0  0
   -9.7500   -3.8971    0.0000 C   0  0  0  0  0  0  0  0  0  0  0  0
   -8.2500   -3.8971    0.0000 C   0  0  0  0  0  0  0  0  0  0  0  0
   -3.7500    1.2990    0.0000 C   0  0  0  0  0  0  0  0  0  0  0  0
   -3.0000    2.5981    0.0000 C   0  0  0  0  0  0  0  0  0  0  0  0
   -3.7500    3.8971    0.0000 F   0  0  0  0  0  0  0  0  0  0  0  0
   -1.5000    2.5981    0.0000 C   0  0  0  0  0  0  0  0  0  0  0  0
   -0.7500    1.2990    0.0000 C   0  0  0  0  0  0  0  0  0  0  0  0
    0.7500    1.2990    0.0000 N   0  0  0  0  0  0  0  0  0  0  0  0
  1  2  1  0
  2  3  2  0
  3  4  1  0
  4  5  2  0
  5  6  1  0
  6  7  1  0
  7  8  1  0
  8  9  1  0
  9 10  1  0
 10 11  1  0
 11 12  1  0
 12 13  1  0
 13 14  1  0
 14 15  1  0
 15 16  2  0
 16 17  1  0
 17 18  2  0
 18 19  1  0
 19 20  2  0
 20 21  1  0
 18 22  1  0
 22 23  1  0
 23 24  1  0
 24 25  2  0
 24 26  1  0
 13 27  1  0
 27 28  1  0
  6 29  2  0
 29 30  1  0
 30 31  1  0
 30 32  2  0
 32 33  1  0
 33 34  2  0
 34  2  1  0
 33  5  1  0
 28 10  1  0
 20 15  1  0
 26 17  1  0
M  END
>  <assay_chembl_id>  (155) 
CHEMBL885596

>  <assay_description>  (155) 
Displacement of [3H]5-HT from human cloned 5HT2B receptor expressed in HEK293 cells

>  <parent_molecule_chembl_id>  (155) 
CHEMBL238520

>  <canonical_smiles>  (155) 
Cc1ccc2c(OCCN3CCC(Cc4cc5c(cc4F)OCC(=O)N5)CC3)cc(F)cc2n1

>  <standard_type>  (155) 
Ki

>  <standard_relation>  (155) 
=

>  <standard_value>  (155) 
1000.0

>  <standard_units>  (155) 
nM

>  <target_pref_name>  (155) 
Serotonin 2b (5-HT2b) receptor

>  <target_chembl_id>  (155) 
CHEMBL1833

>  <target_organism>  (155) 
Homo sapiens

>  <pchembl_median>  (155) 
6.2

$$$$
CHEMBL183460
     RDKit          2D

 32 36  0  0  0  0  0  0  0  0999 V2000
    3.0000    0.0000    0.0000 C   0  0  0  0  0  0  0  0  0  0  0  0
    1.5000    0.0000    0.0000 C   0  0  0  0  0  0  0  0  0  0  0  0
    0.7500   -1.2990    0.0000 C   0  0  0  0  0  0  0  0  0  0  0  0
   -0.7500   -1.2990    0.0000 C   0  0  0  0  0  0  0  0  0  0  0  0
   -1.5000    0.0000    0.0000 C   0  0  0  0  0  0  0  0  0  0  0  0
   -3.0000    0.0000    0.0000 C   0  0  0  0  0  0  0  0  0  0  0  0
   -3.7500   -1.2990    0.0000 O   0  0  0  0  0  0  0  0  0  0  0  0
   -5.2500   -1.2990    0.0000 C   0  0  0  0  0  0  0  0  0  0  0  0
   -6.0000   -2.5981    0.0000 C   0  0  0  0  0  0  0  0  0  0  0  0
   -7.5000   -2.5981    0.0000 N   0  0  0  0  0  0  0  0  0  0  0  0
   -8.2500   -1.2990    0.0000 C   0  0  0  0  0  0  0  0  0  0  0  0
   -9.7500   -1.2990    0.0000 C   0  0  0  0  0  0  0  0  0  0  0  0
  -10.5000   -2.5981    0.0000 C   0  0  0  0  0  0  0  0  0  0  0  0
  -12.0000   -2.5981    0.0000 C   0  0  0  0  0  0  0  0  0  0  0  0
  -12.7500   -1.2990    0.0000 C   0  0  0  0  0  0  0  0  0  0  0  0
  -12.0000    0.0000    0.0000 C   0  0  0  0  0  0  0  0  0  0  0  0
  -12.7500    1.2990    0.0000 C   0  0  0  0  0  0  0  0  0  0  0  0
  -14.2500    1.2990    0.0000 C   0  0  0  0  0  0  0  0  0  0  0  0
  -15.0000    0.0000    0.0000 C   0  0  0  0  0  0  0  0  0  0  0  0
  -14.2500   -1.2990    0.0000 C   0  0  0  0  0  0  0  0  0  0  0  0
  -16.5000    0.0000    0.0000 N   0  0  0  0  0  0  0  0  0  0  0  0
  -17.2500    1.2990    0.0000 C   0  0  0  0  0  0  0  0  0  0  0  0
  -18.7500    1.2990    0.0000 O   0  0  0  0  0  0  0  0  0  0  0  0
  -16.5000    2.5981    0.0000 C   0  0  0  0  0  0  0  0  0  0  0  0
  -15.0000    2.5981    0.0000 O   0  0  0  0  0  0  0  0  0  0  0  0
   -9.7500   -3.8971    0.0000 C   0  0  0  0  0  0  0  0  0  0  0  0
   -8.2500   -3.8971    0.0000 C   0  0  0  0  0  0  0  0  0  0  0  0
   -3.7500    1.2990    0.0000 C   0  0  0  0  0  0  0  0  0  0  0  0
   -3.0000    2.5981    0.0000 C   0  0  0  0  0  0  0  0  0  0  0  0
   -1.5000    2.5981    0.0000 C   0  0  0  0  0  0  0  0  0  0  0  0
   -0.7500    1.2990    0.0000 C   0  0  0  0  0  0  0  0  0  0  0  0
    0.7500    1.2990    0.0000 N   0  0  0  0  0  0  0  0  0  0  0  0
  1  2  1  0
  2  3  2  0
  3  4  1  0
  4  5  2  0
  5  6  1  0
  6  7  1  0
  7  8  1  0
  8  9  1  0
  9 10  1  0
 10 11  1  0
 11 12  1  0
 12 13  1  0
 13 14  1  0
 14 15  1  0
 15 16  2  0
 16 17  1  0
 17 18  2  0
 18 19  1  0
 19 20  2  0
 19 21  1  0
 21 22  1  0
 22 23  2  0
 22 24  1  0
 24 25  1  0
 13 26  1  0
 26 27  1  0
  6 28  2  0
 28 29  1  0
 29 30  2  0
 30 31  1  0
 31 32  2  0
 32  2  1  0
 31  5  1  0
 27 10  1  0
 20 15  1  0
 25 18  1  0
M  END
>  <assay_chembl_id>  (156) 
CHEMBL885596

>  <assay_description>  (156) 
Displacement of [3H]5-HT from human cloned 5HT2B receptor expressed in HEK293 cells

>  <parent_molecule_chembl_id>  (156) 
CHEMBL183460

>  <canonical_smiles>  (156) 
Cc1ccc2c(OCCN3CCC(Cc4ccc5c(c4)NC(=O)CO5)CC3)cccc2n1

>  <standard_type>  (156) 
Ki

>  <standard_relation>  (156) 
=

>  <standard_value>  (156) 
1584.89

>  <standard_units>  (156) 
nM

>  <target_pref_name>  (156) 
Serotonin 2b (5-HT2b) receptor

>  <target_chembl_id>  (156) 
CHEMBL1833

>  <target_organism>  (156) 
Homo sapiens

>  <pchembl_median>  (156) 
7.53

$$$$
CHEMBL403902
     RDKit          2D

 19 21  0  0  0  0  0  0  0  0999 V2000
   -0.2487    5.6515    0.0000 C   0  0  0  0  0  0  0  0  0  0  0  0
    0.1935    4.2182    0.0000 C   0  0  0  0  0  0  0  0  0  0  0  0
   -0.8268    3.1186    0.0000 N   0  0  0  0  0  0  0  0  0  0  0  0
   -0.3846    1.6852    0.0000 C   0  0  0  0  0  0  0  0  0  0  0  0
    1.0777    1.3515    0.0000 C   0  0  0  0  0  0  0  0  0  0  0  0
    2.0980    2.4510    0.0000 C   0  0  0  0  0  0  0  0  0  0  0  0
    3.5604    2.1172    0.0000 C   0  0  0  0  0  0  0  0  0  0  0  0
    4.0025    0.6839    0.0000 C   0  0  0  0  0  0  0  0  0  0  0  0
    5.4649    0.3501    0.0000 C   0  0  0  0  0  0  0  0  0  0  0  0
    6.4852    1.4497    0.0000 C   0  0  0  0  0  0  0  0  0  0  0  0
    7.9476    1.1159    0.0000 Cl  0  0  0  0  0  0  0  0  0  0  0  0
    6.0430    2.8830    0.0000 C   0  0  0  0  0  0  0  0  0  0  0  0
    4.5807    3.2168    0.0000 C   0  0  0  0  0  0  0  0  0  0  0  0
    1.6559    3.8844    0.0000 N   0  0  0  0  0  0  0  0  0  0  0  0
    1.7286    0.0000    0.0000 C   0  0  0  0  0  0  0  0  0  0  0  0
    1.0777   -1.3515    0.0000 C   0  0  0  0  0  0  0  0  0  0  0  0
   -0.3846   -1.6852    0.0000 N   0  0  0  0  0  0  0  0  0  0  0  0
   -1.5574   -0.7500    0.0000 C   0  0  0  0  0  0  0  0  0  0  0  0
   -1.5574    0.7500    0.0000 C   0  0  0  0  0  0  0  0  0  0  0  0
  1  2  1  0
  2  3  2  0
  3  4  1  0
  4  5  2  0
  5  6  1  0
  6  7  1  0
  7  8  2  0
  8  9  1  0
  9 10  2  0
 10 11  1  0
 10 12  1  0
 12 13  2  0
  6 14  2  0
  5 15  1  0
 15 16  1  0
 16 17  1  0
 17 18  1  0
 18 19  1  0
 14  2  1  0
 19  4  1  0
 13  7  1  0
M  END
>  <assay_chembl_id>  (157) 
CHEMBL934033

>  <assay_description>  (157) 
Displacement of [3H]mesulergine from human recombinant 5HT2B receptor expressed in CHO cells

>  <parent_molecule_chembl_id>  (157) 
CHEMBL403902

>  <canonical_smiles>  (157) 
Cc1nc2c(c(-c3ccc(Cl)cc3)n1)CCNCC2

>  <standard_type>  (157) 
Ki

>  <standard_relation>  (157) 
=

>  <standard_value>  (157) 
270.0

>  <standard_units>  (157) 
nM

>  <target_pref_name>  (157) 
Serotonin 2b (5-HT2b) receptor

>  <target_chembl_id>  (157) 
CHEMBL1833

>  <target_organism>  (157) 
Homo sapiens

>  <pchembl_median>  (157) 
7.01

$$$$
CHEMBL256811
     RDKit          2D

 25 28  0  0  0  0  0  0  0  0999 V2000
    7.9476    1.1159    0.0000 F   0  0  0  0  0  0  0  0  0  0  0  0
    6.4852    1.4497    0.0000 C   0  0  0  0  0  0  0  0  0  0  0  0
    5.4649    0.3501    0.0000 C   0  0  0  0  0  0  0  0  0  0  0  0
    4.0025    0.6839    0.0000 C   0  0  0  0  0  0  0  0  0  0  0  0
    3.5604    2.1172    0.0000 C   0  0  0  0  0  0  0  0  0  0  0  0
    2.0980    2.4510    0.0000 C   0  0  0  0  0  0  0  0  0  0  0  0
    1.6559    3.8844    0.0000 N   0  0  0  0  0  0  0  0  0  0  0  0
    0.1935    4.2182    0.0000 C   0  0  0  0  0  0  0  0  0  0  0  0
   -0.2487    5.6515    0.0000 C   0  0  0  0  0  0  0  0  0  0  0  0
    0.7716    6.7511    0.0000 C   0  0  0  0  0  0  0  0  0  0  0  0
    2.2340    6.4173    0.0000 C   0  0  0  0  0  0  0  0  0  0  0  0
    3.2543    7.5169    0.0000 C   0  0  0  0  0  0  0  0  0  0  0  0
    2.8121    8.9503    0.0000 C   0  0  0  0  0  0  0  0  0  0  0  0
    1.3497    9.2840    0.0000 C   0  0  0  0  0  0  0  0  0  0  0  0
    0.3295    8.1845    0.0000 C   0  0  0  0  0  0  0  0  0  0  0  0
   -0.8268    3.1186    0.0000 N   0  0  0  0  0  0  0  0  0  0  0  0
   -0.3846    1.6852    0.0000 C   0  0  0  0  0  0  0  0  0  0  0  0
    1.0777    1.3515    0.0000 C   0  0  0  0  0  0  0  0  0  0  0  0
    1.7286    0.0000    0.0000 C   0  0  0  0  0  0  0  0  0  0  0  0
    1.0777   -1.3515    0.0000 N   0  0  0  0  0  0  0  0  0  0  0  0
   -0.3846   -1.6852    0.0000 C   0  0  0  0  0  0  0  0  0  0  0  0
   -1.5574   -0.7500    0.0000 C   0  0  0  0  0  0  0  0  0  0  0  0
   -1.5574    0.7500    0.0000 C   0  0  0  0  0  0  0  0  0  0  0  0
    4.5807    3.2168    0.0000 C   0  0  0  0  0  0  0  0  0  0  0  0
    6.0430    2.8830    0.0000 C   0  0  0  0  0  0  0  0  0  0  0  0
  1  2  1  0
  2  3  2  0
  3  4  1  0
  4  5  2  0
  5  6  1  0
  6  7  2  0
  7  8  1  0
  8  9  1  0
  9 10  1  0
 10 11  2  0
 11 12  1  0
 12 13  2  0
 13 14  1  0
 14 15  2  0
  8 16  2  0
 16 17  1  0
 17 18  2  0
 18 19  1  0
 19 20  1  0
 20 21  1  0
 21 22  1  0
 22 23  1  0
  5 24  1  0
 24 25  2  0
 25  2  1  0
 18  6  1  0
 15 10  1  0
 23 17  1  0
M  END
>  <assay_chembl_id>  (158) 
CHEMBL934033

>  <assay_description>  (158) 
Displacement of [3H]mesulergine from human recombinant 5HT2B receptor expressed in CHO cells

>  <parent_molecule_chembl_id>  (158) 
CHEMBL256811

>  <canonical_smiles>  (158) 
Fc1ccc(-c2nc(Cc3ccccc3)nc3c2CNCCC3)cc1

>  <standard_type>  (158) 
Ki

>  <standard_relation>  (158) 
=

>  <standard_value>  (158) 
10000.0

>  <standard_units>  (158) 
nM

>  <target_pref_name>  (158) 
Serotonin 2b (5-HT2b) receptor

>  <target_chembl_id>  (158) 
CHEMBL1833

>  <target_organism>  (158) 
Homo sapiens

>  <pchembl_median>  (158) 
7.39

$$$$
CHEMBL403764
     RDKit          2D

 24 27  0  0  0  0  0  0  0  0999 V2000
    7.5000   -2.5981    0.0000 F   0  0  0  0  0  0  0  0  0  0  0  0
    6.0000   -2.5981    0.0000 C   0  0  0  0  0  0  0  0  0  0  0  0
    5.2500   -3.8971    0.0000 C   0  0  0  0  0  0  0  0  0  0  0  0
    3.7500   -3.8971    0.0000 C   0  0  0  0  0  0  0  0  0  0  0  0
    3.0000   -2.5981    0.0000 C   0  0  0  0  0  0  0  0  0  0  0  0
    1.5000   -2.5981    0.0000 C   0  0  0  0  0  0  0  0  0  0  0  0
    0.7500   -3.8971    0.0000 N   0  0  0  0  0  0  0  0  0  0  0  0
   -0.7500   -3.8971    0.0000 C   0  0  0  0  0  0  0  0  0  0  0  0
   -1.5000   -5.1962    0.0000 C   0  0  0  0  0  0  0  0  0  0  0  0
   -3.0000   -5.1962    0.0000 C   0  0  0  0  0  0  0  0  0  0  0  0
   -3.7500   -3.8971    0.0000 C   0  0  0  0  0  0  0  0  0  0  0  0
   -5.2500   -3.8971    0.0000 C   0  0  0  0  0  0  0  0  0  0  0  0
   -6.0000   -5.1962    0.0000 C   0  0  0  0  0  0  0  0  0  0  0  0
   -5.2500   -6.4952    0.0000 C   0  0  0  0  0  0  0  0  0  0  0  0
   -3.7500   -6.4952    0.0000 C   0  0  0  0  0  0  0  0  0  0  0  0
   -1.5000   -2.5981    0.0000 N   0  0  0  0  0  0  0  0  0  0  0  0
   -0.7500   -1.2990    0.0000 C   0  0  0  0  0  0  0  0  0  0  0  0
    0.7500   -1.2990    0.0000 C   0  0  0  0  0  0  0  0  0  0  0  0
    1.5000    0.0000    0.0000 C   0  0  0  0  0  0  0  0  0  0  0  0
    0.7500    1.2990    0.0000 C   0  0  0  0  0  0  0  0  0  0  0  0
   -0.7500    1.2990    0.0000 N   0  0  0  0  0  0  0  0  0  0  0  0
   -1.5000    0.0000    0.0000 C   0  0  0  0  0  0  0  0  0  0  0  0
    3.7500   -1.2990    0.0000 C   0  0  0  0  0  0  0  0  0  0  0  0
    5.2500   -1.2990    0.0000 C   0  0  0  0  0  0  0  0  0  0  0  0
  1  2  1  0
  2  3  2  0
  3  4  1  0
  4  5  2  0
  5  6  1  0
  6  7  2  0
  7  8  1  0
  8  9  1  0
  9 10  1  0
 10 11  2  0
 11 12  1  0
 12 13  2  0
 13 14  1  0
 14 15  2  0
  8 16  2  0
 16 17  1  0
 17 18  2  0
 18 19  1  0
 19 20  1  0
 20 21  1  0
 21 22  1  0
  5 23  1  0
 23 24  2  0
 24  2  1  0
 18  6  1  0
 15 10  1  0
 22 17  1  0
M  END
>  <assay_chembl_id>  (159) 
CHEMBL934033

>  <assay_description>  (159) 
Displacement of [3H]mesulergine from human recombinant 5HT2B receptor expressed in CHO cells

>  <parent_molecule_chembl_id>  (159) 
CHEMBL403764

>  <canonical_smiles>  (159) 
Fc1ccc(-c2nc(Cc3ccccc3)nc3c2CCNC3)cc1

>  <standard_type>  (159) 
Ki

>  <standard_relation>  (159) 
=

>  <standard_value>  (159) 
310.0

>  <standard_units>  (159) 
nM

>  <target_pref_name>  (159) 
Serotonin 2b (5-HT2b) receptor

>  <target_chembl_id>  (159) 
CHEMBL1833

>  <target_organism>  (159) 
Homo sapiens

>  <pchembl_median>  (159) 
6.26

$$$$
CHEMBL404581
     RDKit          2D

 25 28  0  0  0  0  0  0  0  0999 V2000
    7.9476    1.1159    0.0000 F   0  0  0  0  0  0  0  0  0  0  0  0
    6.4852    1.4497    0.0000 C   0  0  0  0  0  0  0  0  0  0  0  0
    5.4649    0.3501    0.0000 C   0  0  0  0  0  0  0  0  0  0  0  0
    4.0025    0.6839    0.0000 C   0  0  0  0  0  0  0  0  0  0  0  0
    3.5604    2.1172    0.0000 C   0  0  0  0  0  0  0  0  0  0  0  0
    2.0980    2.4510    0.0000 C   0  0  0  0  0  0  0  0  0  0  0  0
    1.6559    3.8844    0.0000 N   0  0  0  0  0  0  0  0  0  0  0  0
    0.1935    4.2182    0.0000 C   0  0  0  0  0  0  0  0  0  0  0  0
   -0.2487    5.6515    0.0000 C   0  0  0  0  0  0  0  0  0  0  0  0
    0.7716    6.7511    0.0000 C   0  0  0  0  0  0  0  0  0  0  0  0
    2.2340    6.4173    0.0000 C   0  0  0  0  0  0  0  0  0  0  0  0
    3.2543    7.5169    0.0000 C   0  0  0  0  0  0  0  0  0  0  0  0
    2.8121    8.9503    0.0000 C   0  0  0  0  0  0  0  0  0  0  0  0
    1.3497    9.2840    0.0000 C   0  0  0  0  0  0  0  0  0  0  0  0
    0.3295    8.1845    0.0000 C   0  0  0  0  0  0  0  0  0  0  0  0
   -0.8268    3.1186    0.0000 N   0  0  0  0  0  0  0  0  0  0  0  0
   -0.3846    1.6852    0.0000 C   0  0  0  0  0  0  0  0  0  0  0  0
    1.0777    1.3515    0.0000 C   0  0  0  0  0  0  0  0  0  0  0  0
    1.7286    0.0000    0.0000 C   0  0  0  0  0  0  0  0  0  0  0  0
    1.0777   -1.3515    0.0000 C   0  0  0  0  0  0  0  0  0  0  0  0
   -0.3846   -1.6852    0.0000 C   0  0  0  0  0  0  0  0  0  0  0  0
   -1.5574   -0.7500    0.0000 N   0  0  0  0  0  0  0  0  0  0  0  0
   -1.5574    0.7500    0.0000 C   0  0  0  0  0  0  0  0  0  0  0  0
    4.5807    3.2168    0.0000 C   0  0  0  0  0  0  0  0  0  0  0  0
    6.0430    2.8830    0.0000 C   0  0  0  0  0  0  0  0  0  0  0  0
  1  2  1  0
  2  3  2  0
  3  4  1  0
  4  5  2  0
  5  6  1  0
  6  7  2  0
  7  8  1  0
  8  9  1  0
  9 10  1  0
 10 11  2  0
 11 12  1  0
 12 13  2  0
 13 14  1  0
 14 15  2  0
  8 16  2  0
 16 17  1  0
 17 18  2  0
 18 19  1  0
 19 20  1  0
 20 21  1  0
 21 22  1  0
 22 23  1  0
  5 24  1  0
 24 25  2  0
 25  2  1  0
 18  6  1  0
 15 10  1  0
 23 17  1  0
M  END
>  <assay_chembl_id>  (160) 
CHEMBL934033

>  <assay_description>  (160) 
Displacement of [3H]mesulergine from human recombinant 5HT2B receptor expressed in CHO cells

>  <parent_molecule_chembl_id>  (160) 
CHEMBL404581

>  <canonical_smiles>  (160) 
Fc1ccc(-c2nc(Cc3ccccc3)nc3c2CCCNC3)cc1

>  <standard_type>  (160) 
Ki

>  <standard_relation>  (160) 
=

>  <standard_value>  (160) 
1300.0

>  <standard_units>  (160) 
nM

>  <target_pref_name>  (160) 
Serotonin 2b (5-HT2b) receptor

>  <target_chembl_id>  (160) 
CHEMBL1833

>  <target_organism>  (160) 
Homo sapiens

>  <pchembl_median>  (160) 
7.62

$$$$
CHEMBL404582
     RDKit          2D

 23 26  0  0  0  0  0  0  0  0999 V2000
    7.5000   -2.5981    0.0000 F   0  0  0  0  0  0  0  0  0  0  0  0
    6.0000   -2.5981    0.0000 C   0  0  0  0  0  0  0  0  0  0  0  0
    5.2500   -3.8971    0.0000 C   0  0  0  0  0  0  0  0  0  0  0  0
    3.7500   -3.8971    0.0000 C   0  0  0  0  0  0  0  0  0  0  0  0
    3.0000   -2.5981    0.0000 C   0  0  0  0  0  0  0  0  0  0  0  0
    1.5000   -2.5981    0.0000 C   0  0  0  0  0  0  0  0  0  0  0  0
    0.7500   -3.8971    0.0000 N   0  0  0  0  0  0  0  0  0  0  0  0
   -0.7500   -3.8971    0.0000 C   0  0  0  0  0  0  0  0  0  0  0  0
   -1.5000   -5.1962    0.0000 C   0  0  0  0  0  0  0  0  0  0  0  0
   -3.0000   -5.1962    0.0000 C   0  0  0  0  0  0  0  0  0  0  0  0
   -3.7500   -6.4952    0.0000 C   0  0  0  0  0  0  0  0  0  0  0  0
   -3.0000   -7.7942    0.0000 C   0  0  0  0  0  0  0  0  0  0  0  0
   -1.5000   -7.7942    0.0000 C   0  0  0  0  0  0  0  0  0  0  0  0
   -0.7500   -6.4952    0.0000 C   0  0  0  0  0  0  0  0  0  0  0  0
   -1.5000   -2.5981    0.0000 N   0  0  0  0  0  0  0  0  0  0  0  0
   -0.7500   -1.2990    0.0000 C   0  0  0  0  0  0  0  0  0  0  0  0
    0.7500   -1.2990    0.0000 C   0  0  0  0  0  0  0  0  0  0  0  0
    1.5000    0.0000    0.0000 C   0  0  0  0  0  0  0  0  0  0  0  0
    0.7500    1.2990    0.0000 N   0  0  0  0  0  0  0  0  0  0  0  0
   -0.7500    1.2990    0.0000 C   0  0  0  0  0  0  0  0  0  0  0  0
   -1.5000    0.0000    0.0000 C   0  0  0  0  0  0  0  0  0  0  0  0
    3.7500   -1.2990    0.0000 C   0  0  0  0  0  0  0  0  0  0  0  0
    5.2500   -1.2990    0.0000 C   0  0  0  0  0  0  0  0  0  0  0  0
  1  2  1  0
  2  3  2  0
  3  4  1  0
  4  5  2  0
  5  6  1  0
  6  7  2  0
  7  8  1  0
  8  9  1  0
  9 10  2  0
 10 11  1  0
 11 12  2  0
 12 13  1  0
 13 14  2  0
  8 15  2  0
 15 16  1  0
 16 17  2  0
 17 18  1  0
 18 19  1  0
 19 20  1  0
 20 21  1  0
  5 22  1  0
 22 23  2  0
 23  2  1  0
 17  6  1  0
 14  9  1  0
 21 16  1  0
M  END
>  <assay_chembl_id>  (161) 
CHEMBL934033

>  <assay_description>  (161) 
Displacement of [3H]mesulergine from human recombinant 5HT2B receptor expressed in CHO cells

>  <parent_molecule_chembl_id>  (161) 
CHEMBL404582

>  <canonical_smiles>  (161) 
Fc1ccc(-c2nc(-c3ccccc3)nc3c2CNCC3)cc1

>  <standard_type>  (161) 
Ki

>  <standard_relation>  (161) 
=

>  <standard_value>  (161) 
1000.0

>  <standard_units>  (161) 
nM

>  <target_pref_name>  (161) 
Serotonin 2b (5-HT2b) receptor

>  <target_chembl_id>  (161) 
CHEMBL1833

>  <target_organism>  (161) 
Homo sapiens

>  <pchembl_median>  (161) 
5.68

$$$$
CHEMBL257944
     RDKit          2D

 21 23  0  0  0  0  0  0  0  0999 V2000
   -3.7500   -6.4952    0.0000 C   0  0  0  0  0  0  0  0  0  0  0  0
   -3.0000   -5.1962    0.0000 C   0  0  0  0  0  0  0  0  0  0  0  0
   -3.7500   -3.8971    0.0000 C   0  0  0  0  0  0  0  0  0  0  0  0
   -1.5000   -5.1962    0.0000 C   0  0  0  0  0  0  0  0  0  0  0  0
   -0.7500   -3.8971    0.0000 C   0  0  0  0  0  0  0  0  0  0  0  0
   -1.5000   -2.5981    0.0000 N   0  0  0  0  0  0  0  0  0  0  0  0
   -0.7500   -1.2990    0.0000 C   0  0  0  0  0  0  0  0  0  0  0  0
    0.7500   -1.2990    0.0000 C   0  0  0  0  0  0  0  0  0  0  0  0
    1.5000   -2.5981    0.0000 C   0  0  0  0  0  0  0  0  0  0  0  0
    3.0000   -2.5981    0.0000 C   0  0  0  0  0  0  0  0  0  0  0  0
    3.7500   -3.8971    0.0000 C   0  0  0  0  0  0  0  0  0  0  0  0
    5.2500   -3.8971    0.0000 C   0  0  0  0  0  0  0  0  0  0  0  0
    6.0000   -2.5981    0.0000 C   0  0  0  0  0  0  0  0  0  0  0  0
    7.5000   -2.5981    0.0000 F   0  0  0  0  0  0  0  0  0  0  0  0
    5.2500   -1.2990    0.0000 C   0  0  0  0  0  0  0  0  0  0  0  0
    3.7500   -1.2990    0.0000 C   0  0  0  0  0  0  0  0  0  0  0  0
    0.7500   -3.8971    0.0000 N   0  0  0  0  0  0  0  0  0  0  0  0
    1.5000    0.0000    0.0000 C   0  0  0  0  0  0  0  0  0  0  0  0
    0.7500    1.2990    0.0000 N   0  0  0  0  0  0  0  0  0  0  0  0
   -0.7500    1.2990    0.0000 C   0  0  0  0  0  0  0  0  0  0  0  0
   -1.5000    0.0000    0.0000 C   0  0  0  0  0  0  0  0  0  0  0  0
  1  2  1  0
  2  3  1  0
  2  4  1  0
  4  5  1  0
  5  6  2  0
  6  7  1  0
  7  8  2  0
  8  9  1  0
  9 10  1  0
 10 11  2  0
 11 12  1  0
 12 13  2  0
 13 14  1  0
 13 15  1  0
 15 16  2  0
  9 17  2  0
  8 18  1  0
 18 19  1  0
 19 20  1  0
 20 21  1  0
 17  5  1  0
 21  7  1  0
 16 10  1  0
M  END
>  <assay_chembl_id>  (162) 
CHEMBL934033

>  <assay_description>  (162) 
Displacement of [3H]mesulergine from human recombinant 5HT2B receptor expressed in CHO cells

>  <parent_molecule_chembl_id>  (162) 
CHEMBL257944

>  <canonical_smiles>  (162) 
CC(C)Cc1nc2c(c(-c3ccc(F)cc3)n1)CNCC2

>  <standard_type>  (162) 
Ki

>  <standard_relation>  (162) 
=

>  <standard_value>  (162) 
400.0

>  <standard_units>  (162) 
nM

>  <target_pref_name>  (162) 
Serotonin 2b (5-HT2b) receptor

>  <target_chembl_id>  (162) 
CHEMBL1833

>  <target_organism>  (162) 
Homo sapiens

>  <pchembl_median>  (162) 
6.05

$$$$
CHEMBL271111
     RDKit          2D

 20 23  0  0  0  0  0  0  0  0999 V2000
    7.5000   -2.5981    0.0000 F   0  0  0  0  0  0  0  0  0  0  0  0
    6.0000   -2.5981    0.0000 C   0  0  0  0  0  0  0  0  0  0  0  0
    5.2500   -3.8971    0.0000 C   0  0  0  0  0  0  0  0  0  0  0  0
    3.7500   -3.8971    0.0000 C   0  0  0  0  0  0  0  0  0  0  0  0
    3.0000   -2.5981    0.0000 C   0  0  0  0  0  0  0  0  0  0  0  0
    1.5000   -2.5981    0.0000 C   0  0  0  0  0  0  0  0  0  0  0  0
    0.7500   -3.8971    0.0000 N   0  0  0  0  0  0  0  0  0  0  0  0
   -0.7500   -3.8971    0.0000 C   0  0  0  0  0  0  0  0  0  0  0  0
   -1.5000   -5.1962    0.0000 C   0  0  0  0  0  0  0  0  0  0  0  0
   -1.5000   -6.6962    0.0000 C   0  0  0  0  0  0  0  0  0  0  0  0
   -2.7990   -5.9462    0.0000 C   0  0  0  0  0  0  0  0  0  0  0  0
   -1.5000   -2.5981    0.0000 N   0  0  0  0  0  0  0  0  0  0  0  0
   -0.7500   -1.2990    0.0000 C   0  0  0  0  0  0  0  0  0  0  0  0
    0.7500   -1.2990    0.0000 C   0  0  0  0  0  0  0  0  0  0  0  0
    1.5000    0.0000    0.0000 C   0  0  0  0  0  0  0  0  0  0  0  0
    0.7500    1.2990    0.0000 N   0  0  0  0  0  0  0  0  0  0  0  0
   -0.7500    1.2990    0.0000 C   0  0  0  0  0  0  0  0  0  0  0  0
   -1.5000    0.0000    0.0000 C   0  0  0  0  0  0  0  0  0  0  0  0
    3.7500   -1.2990    0.0000 C   0  0  0  0  0  0  0  0  0  0  0  0
    5.2500   -1.2990    0.0000 C   0  0  0  0  0  0  0  0  0  0  0  0
  1  2  1  0
  2  3  2  0
  3  4  1  0
  4  5  2  0
  5  6  1  0
  6  7  2  0
  7  8  1  0
  8  9  1  0
  9 10  1  0
 10 11  1  0
  8 12  2  0
 12 13  1  0
 13 14  2  0
 14 15  1  0
 15 16  1  0
 16 17  1  0
 17 18  1  0
  5 19  1  0
 19 20  2  0
 20  2  1  0
 14  6  1  0
 11  9  1  0
 18 13  1  0
M  END
>  <assay_chembl_id>  (163) 
CHEMBL934033

>  <assay_description>  (163) 
Displacement of [3H]mesulergine from human recombinant 5HT2B receptor expressed in CHO cells

>  <parent_molecule_chembl_id>  (163) 
CHEMBL271111

>  <canonical_smiles>  (163) 
Fc1ccc(-c2nc(C3CC3)nc3c2CNCC3)cc1

>  <standard_type>  (163) 
Ki

>  <standard_relation>  (163) 
=

>  <standard_value>  (163) 
9000.0

>  <standard_units>  (163) 
nM

>  <target_pref_name>  (163) 
Serotonin 2b (5-HT2b) receptor

>  <target_chembl_id>  (163) 
CHEMBL1833

>  <target_organism>  (163) 
Homo sapiens

>  <pchembl_median>  (163) 
7.08

$$$$
CHEMBL271318
     RDKit          2D

 21 24  0  0  0  0  0  0  0  0999 V2000
    7.5000   -2.5981    0.0000 F   0  0  0  0  0  0  0  0  0  0  0  0
    6.0000   -2.5981    0.0000 C   0  0  0  0  0  0  0  0  0  0  0  0
    5.2500   -3.8971    0.0000 C   0  0  0  0  0  0  0  0  0  0  0  0
    3.7500   -3.8971    0.0000 C   0  0  0  0  0  0  0  0  0  0  0  0
    3.0000   -2.5981    0.0000 C   0  0  0  0  0  0  0  0  0  0  0  0
    1.5000   -2.5981    0.0000 C   0  0  0  0  0  0  0  0  0  0  0  0
    0.7500   -3.8971    0.0000 N   0  0  0  0  0  0  0  0  0  0  0  0
   -0.7500   -3.8971    0.0000 C   0  0  0  0  0  0  0  0  0  0  0  0
   -1.5000   -5.1962    0.0000 C   0  0  0  0  0  0  0  0  0  0  0  0
   -2.9489   -5.5844    0.0000 C   0  0  0  0  0  0  0  0  0  0  0  0
   -2.5607   -7.0333    0.0000 C   0  0  0  0  0  0  0  0  0  0  0  0
   -1.1118   -6.6450    0.0000 C   0  0  0  0  0  0  0  0  0  0  0  0
   -1.5000   -2.5981    0.0000 N   0  0  0  0  0  0  0  0  0  0  0  0
   -0.7500   -1.2990    0.0000 C   0  0  0  0  0  0  0  0  0  0  0  0
    0.7500   -1.2990    0.0000 C   0  0  0  0  0  0  0  0  0  0  0  0
    1.5000    0.0000    0.0000 C   0  0  0  0  0  0  0  0  0  0  0  0
    0.7500    1.2990    0.0000 N   0  0  0  0  0  0  0  0  0  0  0  0
   -0.7500    1.2990    0.0000 C   0  0  0  0  0  0  0  0  0  0  0  0
   -1.5000    0.0000    0.0000 C   0  0  0  0  0  0  0  0  0  0  0  0
    3.7500   -1.2990    0.0000 C   0  0  0  0  0  0  0  0  0  0  0  0
    5.2500   -1.2990    0.0000 C   0  0  0  0  0  0  0  0  0  0  0  0
  1  2  1  0
  2  3  2  0
  3  4  1  0
  4  5  2  0
  5  6  1  0
  6  7  2  0
  7  8  1  0
  8  9  1  0
  9 10  1  0
 10 11  1  0
 11 12  1  0
  8 13  2  0
 13 14  1  0
 14 15  2  0
 15 16  1  0
 16 17  1  0
 17 18  1  0
 18 19  1  0
  5 20  1  0
 20 21  2  0
 21  2  1  0
 15  6  1  0
 12  9  1  0
 19 14  1  0
M  END
>  <assay_chembl_id>  (164) 
CHEMBL934033

>  <assay_description>  (164) 
Displacement of [3H]mesulergine from human recombinant 5HT2B receptor expressed in CHO cells

>  <parent_molecule_chembl_id>  (164) 
CHEMBL271318

>  <canonical_smiles>  (164) 
Fc1ccc(-c2nc(C3CCC3)nc3c2CNCC3)cc1

>  <standard_type>  (164) 
Ki

>  <standard_relation>  (164) 
=

>  <standard_value>  (164) 
210.0

>  <standard_units>  (164) 
nM

>  <target_pref_name>  (164) 
Serotonin 2b (5-HT2b) receptor

>  <target_chembl_id>  (164) 
CHEMBL1833

>  <target_organism>  (164) 
Homo sapiens

>  <pchembl_median>  (164) 
5.96

$$$$
CHEMBL271317
     RDKit          2D

 25 28  0  0  0  0  0  0  0  0999 V2000
   -7.5000   -5.1962    0.0000 F   0  0  0  0  0  0  0  0  0  0  0  0
   -6.0000   -5.1962    0.0000 C   0  0  0  0  0  0  0  0  0  0  0  0
   -5.2500   -3.8971    0.0000 C   0  0  0  0  0  0  0  0  0  0  0  0
   -3.7500   -3.8971    0.0000 C   0  0  0  0  0  0  0  0  0  0  0  0
   -3.0000   -5.1962    0.0000 C   0  0  0  0  0  0  0  0  0  0  0  0
   -1.5000   -5.1962    0.0000 C   0  0  0  0  0  0  0  0  0  0  0  0
   -0.7500   -3.8971    0.0000 C   0  0  0  0  0  0  0  0  0  0  0  0
   -1.5000   -2.5981    0.0000 N   0  0  0  0  0  0  0  0  0  0  0  0
   -0.7500   -1.2990    0.0000 C   0  0  0  0  0  0  0  0  0  0  0  0
    0.7500   -1.2990    0.0000 C   0  0  0  0  0  0  0  0  0  0  0  0
    1.5000   -2.5981    0.0000 C   0  0  0  0  0  0  0  0  0  0  0  0
    3.0000   -2.5981    0.0000 C   0  0  0  0  0  0  0  0  0  0  0  0
    3.7500   -3.8971    0.0000 C   0  0  0  0  0  0  0  0  0  0  0  0
    5.2500   -3.8971    0.0000 C   0  0  0  0  0  0  0  0  0  0  0  0
    6.0000   -2.5981    0.0000 C   0  0  0  0  0  0  0  0  0  0  0  0
    7.5000   -2.5981    0.0000 F   0  0  0  0  0  0  0  0  0  0  0  0
    5.2500   -1.2990    0.0000 C   0  0  0  0  0  0  0  0  0  0  0  0
    3.7500   -1.2990    0.0000 C   0  0  0  0  0  0  0  0  0  0  0  0
    0.7500   -3.8971    0.0000 N   0  0  0  0  0  0  0  0  0  0  0  0
    1.5000    0.0000    0.0000 C   0  0  0  0  0  0  0  0  0  0  0  0
    0.7500    1.2990    0.0000 N   0  0  0  0  0  0  0  0  0  0  0  0
   -0.7500    1.2990    0.0000 C   0  0  0  0  0  0  0  0  0  0  0  0
   -1.5000    0.0000    0.0000 C   0  0  0  0  0  0  0  0  0  0  0  0
   -3.7500   -6.4952    0.0000 C   0  0  0  0  0  0  0  0  0  0  0  0
   -5.2500   -6.4952    0.0000 C   0  0  0  0  0  0  0  0  0  0  0  0
  1  2  1  0
  2  3  2  0
  3  4  1  0
  4  5  2  0
  5  6  1  0
  6  7  1  0
  7  8  2  0
  8  9  1  0
  9 10  2  0
 10 11  1  0
 11 12  1  0
 12 13  2  0
 13 14  1  0
 14 15  2  0
 15 16  1  0
 15 17  1  0
 17 18  2  0
 11 19  2  0
 10 20  1  0
 20 21  1  0
 21 22  1  0
 22 23  1  0
  5 24  1  0
 24 25  2  0
 25  2  1  0
 19  7  1  0
 23  9  1  0
 18 12  1  0
M  END
>  <assay_chembl_id>  (165) 
CHEMBL934033

>  <assay_description>  (165) 
Displacement of [3H]mesulergine from human recombinant 5HT2B receptor expressed in CHO cells

>  <parent_molecule_chembl_id>  (165) 
CHEMBL271317

>  <canonical_smiles>  (165) 
Fc1ccc(Cc2nc3c(c(-c4ccc(F)cc4)n2)CNCC3)cc1

>  <standard_type>  (165) 
Ki

>  <standard_relation>  (165) 
=

>  <standard_value>  (165) 
2200.0

>  <standard_units>  (165) 
nM

>  <target_pref_name>  (165) 
Serotonin 2b (5-HT2b) receptor

>  <target_chembl_id>  (165) 
CHEMBL1833

>  <target_organism>  (165) 
Homo sapiens

>  <pchembl_median>  (165) 
6.6

$$$$
CHEMBL408154
     RDKit          2D

 21 23  0  0  0  0  0  0  0  0999 V2000
   -1.5000   -7.7942    0.0000 C   0  0  0  0  0  0  0  0  0  0  0  0
   -0.7500   -6.4952    0.0000 C   0  0  0  0  0  0  0  0  0  0  0  0
   -1.5000   -5.1962    0.0000 C   0  0  0  0  0  0  0  0  0  0  0  0
   -3.0000   -5.1962    0.0000 C   0  0  0  0  0  0  0  0  0  0  0  0
   -0.7500   -3.8971    0.0000 C   0  0  0  0  0  0  0  0  0  0  0  0
   -1.5000   -2.5981    0.0000 N   0  0  0  0  0  0  0  0  0  0  0  0
   -0.7500   -1.2990    0.0000 C   0  0  0  0  0  0  0  0  0  0  0  0
    0.7500   -1.2990    0.0000 C   0  0  0  0  0  0  0  0  0  0  0  0
    1.5000   -2.5981    0.0000 C   0  0  0  0  0  0  0  0  0  0  0  0
    3.0000   -2.5981    0.0000 C   0  0  0  0  0  0  0  0  0  0  0  0
    3.7500   -3.8971    0.0000 C   0  0  0  0  0  0  0  0  0  0  0  0
    5.2500   -3.8971    0.0000 C   0  0  0  0  0  0  0  0  0  0  0  0
    6.0000   -2.5981    0.0000 C   0  0  0  0  0  0  0  0  0  0  0  0
    7.5000   -2.5981    0.0000 F   0  0  0  0  0  0  0  0  0  0  0  0
    5.2500   -1.2990    0.0000 C   0  0  0  0  0  0  0  0  0  0  0  0
    3.7500   -1.2990    0.0000 C   0  0  0  0  0  0  0  0  0  0  0  0
    0.7500   -3.8971    0.0000 N   0  0  0  0  0  0  0  0  0  0  0  0
    1.5000    0.0000    0.0000 C   0  0  0  0  0  0  0  0  0  0  0  0
    0.7500    1.2990    0.0000 N   0  0  0  0  0  0  0  0  0  0  0  0
   -0.7500    1.2990    0.0000 C   0  0  0  0  0  0  0  0  0  0  0  0
   -1.5000    0.0000    0.0000 C   0  0  0  0  0  0  0  0  0  0  0  0
  1  2  1  0
  2  3  1  0
  3  4  1  0
  3  5  1  0
  5  6  2  0
  6  7  1  0
  7  8  2  0
  8  9  1  0
  9 10  1  0
 10 11  2  0
 11 12  1  0
 12 13  2  0
 13 14  1  0
 13 15  1  0
 15 16  2  0
  9 17  2  0
  8 18  1  0
 18 19  1  0
 19 20  1  0
 20 21  1  0
 17  5  1  0
 21  7  1  0
 16 10  1  0
M  END
>  <assay_chembl_id>  (166) 
CHEMBL934033

>  <assay_description>  (166) 
Displacement of [3H]mesulergine from human recombinant 5HT2B receptor expressed in CHO cells

>  <parent_molecule_chembl_id>  (166) 
CHEMBL408154

>  <canonical_smiles>  (166) 
CCC(C)c1nc2c(c(-c3ccc(F)cc3)n1)CNCC2

>  <standard_type>  (166) 
Ki

>  <standard_relation>  (166) 
=

>  <standard_value>  (166) 
2250.0

>  <standard_units>  (166) 
nM

>  <target_pref_name>  (166) 
Serotonin 2b (5-HT2b) receptor

>  <target_chembl_id>  (166) 
CHEMBL1833

>  <target_organism>  (166) 
Homo sapiens

>  <pchembl_median>  (166) 
6.025

$$$$
CHEMBL408155
     RDKit          2D

 21 23  0  0  0  0  0  0  0  0999 V2000
   -2.7990   -4.4462    0.0000 C   0  0  0  0  0  0  0  0  0  0  0  0
   -1.5000   -5.1962    0.0000 C   0  0  0  0  0  0  0  0  0  0  0  0
   -0.2010   -5.9462    0.0000 C   0  0  0  0  0  0  0  0  0  0  0  0
   -2.2500   -6.4952    0.0000 C   0  0  0  0  0  0  0  0  0  0  0  0
   -0.7500   -3.8971    0.0000 C   0  0  0  0  0  0  0  0  0  0  0  0
   -1.5000   -2.5981    0.0000 N   0  0  0  0  0  0  0  0  0  0  0  0
   -0.7500   -1.2990    0.0000 C   0  0  0  0  0  0  0  0  0  0  0  0
    0.7500   -1.2990    0.0000 C   0  0  0  0  0  0  0  0  0  0  0  0
    1.5000   -2.5981    0.0000 C   0  0  0  0  0  0  0  0  0  0  0  0
    3.0000   -2.5981    0.0000 C   0  0  0  0  0  0  0  0  0  0  0  0
    3.7500   -3.8971    0.0000 C   0  0  0  0  0  0  0  0  0  0  0  0
    5.2500   -3.8971    0.0000 C   0  0  0  0  0  0  0  0  0  0  0  0
    6.0000   -2.5981    0.0000 C   0  0  0  0  0  0  0  0  0  0  0  0
    7.5000   -2.5981    0.0000 F   0  0  0  0  0  0  0  0  0  0  0  0
    5.2500   -1.2990    0.0000 C   0  0  0  0  0  0  0  0  0  0  0  0
    3.7500   -1.2990    0.0000 C   0  0  0  0  0  0  0  0  0  0  0  0
    0.7500   -3.8971    0.0000 N   0  0  0  0  0  0  0  0  0  0  0  0
    1.5000    0.0000    0.0000 C   0  0  0  0  0  0  0  0  0  0  0  0
    0.7500    1.2990    0.0000 N   0  0  0  0  0  0  0  0  0  0  0  0
   -0.7500    1.2990    0.0000 C   0  0  0  0  0  0  0  0  0  0  0  0
   -1.5000    0.0000    0.0000 C   0  0  0  0  0  0  0  0  0  0  0  0
  1  2  1  0
  2  3  1  0
  2  4  1  0
  2  5  1  0
  5  6  2  0
  6  7  1  0
  7  8  2  0
  8  9  1  0
  9 10  1  0
 10 11  2  0
 11 12  1  0
 12 13  2  0
 13 14  1  0
 13 15  1  0
 15 16  2  0
  9 17  2  0
  8 18  1  0
 18 19  1  0
 19 20  1  0
 20 21  1  0
 17  5  1  0
 21  7  1  0
 16 10  1  0
M  END
>  <assay_chembl_id>  (167) 
CHEMBL934033

>  <assay_description>  (167) 
Displacement of [3H]mesulergine from human recombinant 5HT2B receptor expressed in CHO cells

>  <parent_molecule_chembl_id>  (167) 
CHEMBL408155

>  <canonical_smiles>  (167) 
CC(C)(C)c1nc2c(c(-c3ccc(F)cc3)n1)CNCC2

>  <standard_type>  (167) 
Ki

>  <standard_relation>  (167) 
=

>  <standard_value>  (167) 
70.0

>  <standard_units>  (167) 
nM

>  <target_pref_name>  (167) 
Serotonin 2b (5-HT2b) receptor

>  <target_chembl_id>  (167) 
CHEMBL1833

>  <target_organism>  (167) 
Homo sapiens

>  <pchembl_median>  (167) 
5.29

$$$$
CHEMBL271212
     RDKit          2D

 22 25  0  0  0  0  0  0  0  0999 V2000
    7.5000   -2.5981    0.0000 F   0  0  0  0  0  0  0  0  0  0  0  0
    6.0000   -2.5981    0.0000 C   0  0  0  0  0  0  0  0  0  0  0  0
    5.2500   -3.8971    0.0000 C   0  0  0  0  0  0  0  0  0  0  0  0
    3.7500   -3.8971    0.0000 C   0  0  0  0  0  0  0  0  0  0  0  0
    3.0000   -2.5981    0.0000 C   0  0  0  0  0  0  0  0  0  0  0  0
    1.5000   -2.5981    0.0000 C   0  0  0  0  0  0  0  0  0  0  0  0
    0.7500   -3.8971    0.0000 N   0  0  0  0  0  0  0  0  0  0  0  0
   -0.7500   -3.8971    0.0000 C   0  0  0  0  0  0  0  0  0  0  0  0
   -1.5000   -5.1962    0.0000 C   0  0  0  0  0  0  0  0  0  0  0  0
   -0.8899   -6.5665    0.0000 C   0  0  0  0  0  0  0  0  0  0  0  0
   -2.0046   -7.5702    0.0000 C   0  0  0  0  0  0  0  0  0  0  0  0
   -3.3037   -6.8202    0.0000 C   0  0  0  0  0  0  0  0  0  0  0  0
   -2.9918   -5.3529    0.0000 C   0  0  0  0  0  0  0  0  0  0  0  0
   -1.5000   -2.5981    0.0000 N   0  0  0  0  0  0  0  0  0  0  0  0
   -0.7500   -1.2990    0.0000 C   0  0  0  0  0  0  0  0  0  0  0  0
    0.7500   -1.2990    0.0000 C   0  0  0  0  0  0  0  0  0  0  0  0
    1.5000    0.0000    0.0000 C   0  0  0  0  0  0  0  0  0  0  0  0
    0.7500    1.2990    0.0000 N   0  0  0  0  0  0  0  0  0  0  0  0
   -0.7500    1.2990    0.0000 C   0  0  0  0  0  0  0  0  0  0  0  0
   -1.5000    0.0000    0.0000 C   0  0  0  0  0  0  0  0  0  0  0  0
    3.7500   -1.2990    0.0000 C   0  0  0  0  0  0  0  0  0  0  0  0
    5.2500   -1.2990    0.0000 C   0  0  0  0  0  0  0  0  0  0  0  0
  1  2  1  0
  2  3  2  0
  3  4  1  0
  4  5  2  0
  5  6  1  0
  6  7  2  0
  7  8  1  0
  8  9  1  0
  9 10  1  0
 10 11  1  0
 11 12  1  0
 12 13  1  0
  8 14  2  0
 14 15  1  0
 15 16  2  0
 16 17  1  0
 17 18  1  0
 18 19  1  0
 19 20  1  0
  5 21  1  0
 21 22  2  0
 22  2  1  0
 16  6  1  0
 13  9  1  0
 20 15  1  0
M  END
>  <assay_chembl_id>  (168) 
CHEMBL934033

>  <assay_description>  (168) 
Displacement of [3H]mesulergine from human recombinant 5HT2B receptor expressed in CHO cells

>  <parent_molecule_chembl_id>  (168) 
CHEMBL271212

>  <canonical_smiles>  (168) 
Fc1ccc(-c2nc(C3CCCC3)nc3c2CNCC3)cc1

>  <standard_type>  (168) 
Ki

>  <standard_relation>  (168) 
=

>  <standard_value>  (168) 
220.0

>  <standard_units>  (168) 
nM

>  <target_pref_name>  (168) 
Serotonin 2b (5-HT2b) receptor

>  <target_chembl_id>  (168) 
CHEMBL1833

>  <target_organism>  (168) 
Homo sapiens

>  <pchembl_median>  (168) 
6.69

$$$$
CHEMBL271419
     RDKit          2D

 24 27  0  0  0  0  0  0  0  0999 V2000
    7.5000   -2.5981    0.0000 F   0  0  0  0  0  0  0  0  0  0  0  0
    6.0000   -2.5981    0.0000 C   0  0  0  0  0  0  0  0  0  0  0  0
    5.2500   -3.8971    0.0000 C   0  0  0  0  0  0  0  0  0  0  0  0
    3.7500   -3.8971    0.0000 C   0  0  0  0  0  0  0  0  0  0  0  0
    3.0000   -2.5981    0.0000 C   0  0  0  0  0  0  0  0  0  0  0  0
    1.5000   -2.5981    0.0000 C   0  0  0  0  0  0  0  0  0  0  0  0
    0.7500   -3.8971    0.0000 N   0  0  0  0  0  0  0  0  0  0  0  0
   -0.7500   -3.8971    0.0000 C   0  0  0  0  0  0  0  0  0  0  0  0
   -1.5000   -5.1962    0.0000 C   0  0  0  0  0  0  0  0  0  0  0  0
   -3.0000   -5.1962    0.0000 C   0  0  0  0  0  0  0  0  0  0  0  0
   -3.7500   -3.8971    0.0000 C   0  0  0  0  0  0  0  0  0  0  0  0
   -5.2500   -3.8971    0.0000 C   0  0  0  0  0  0  0  0  0  0  0  0
   -6.0000   -5.1962    0.0000 C   0  0  0  0  0  0  0  0  0  0  0  0
   -5.2500   -6.4952    0.0000 C   0  0  0  0  0  0  0  0  0  0  0  0
   -3.7500   -6.4952    0.0000 C   0  0  0  0  0  0  0  0  0  0  0  0
   -1.5000   -2.5981    0.0000 N   0  0  0  0  0  0  0  0  0  0  0  0
   -0.7500   -1.2990    0.0000 C   0  0  0  0  0  0  0  0  0  0  0  0
    0.7500   -1.2990    0.0000 C   0  0  0  0  0  0  0  0  0  0  0  0
    1.5000    0.0000    0.0000 C   0  0  0  0  0  0  0  0  0  0  0  0
    0.7500    1.2990    0.0000 N   0  0  0  0  0  0  0  0  0  0  0  0
   -0.7500    1.2990    0.0000 C   0  0  0  0  0  0  0  0  0  0  0  0
   -1.5000    0.0000    0.0000 C   0  0  0  0  0  0  0  0  0  0  0  0
    3.7500   -1.2990    0.0000 C   0  0  0  0  0  0  0  0  0  0  0  0
    5.2500   -1.2990    0.0000 C   0  0  0  0  0  0  0  0  0  0  0  0
  1  2  1  0
  2  3  2  0
  3  4  1  0
  4  5  2  0
  5  6  1  0
  6  7  2  0
  7  8  1  0
  8  9  1  0
  9 10  1  0
 10 11  2  0
 11 12  1  0
 12 13  2  0
 13 14  1  0
 14 15  2  0
  8 16  2  0
 16 17  1  0
 17 18  2  0
 18 19  1  0
 19 20  1  0
 20 21  1  0
 21 22  1  0
  5 23  1  0
 23 24  2  0
 24  2  1  0
 18  6  1  0
 15 10  1  0
 22 17  1  0
M  END
>  <assay_chembl_id>  (169) 
CHEMBL934033

>  <assay_description>  (169) 
Displacement of [3H]mesulergine from human recombinant 5HT2B receptor expressed in CHO cells

>  <parent_molecule_chembl_id>  (169) 
CHEMBL271419

>  <canonical_smiles>  (169) 
Fc1ccc(-c2nc(Cc3ccccc3)nc3c2CNCC3)cc1

>  <standard_type>  (169) 
Ki

>  <standard_relation>  (169) 
=

>  <standard_value>  (169) 
2500.0

>  <standard_units>  (169) 
nM

>  <target_pref_name>  (169) 
Serotonin 2b (5-HT2b) receptor

>  <target_chembl_id>  (169) 
CHEMBL1833

>  <target_organism>  (169) 
Homo sapiens

>  <pchembl_median>  (169) 
6.03

$$$$
CHEMBL271418
     RDKit          2D

 28 31  0  0  0  0  0  0  0  0999 V2000
    9.4100    0.7821    0.0000 F   0  0  0  0  0  0  0  0  0  0  0  0
    7.9476    1.1159    0.0000 C   0  0  0  0  0  0  0  0  0  0  0  0
    7.6138   -0.3465    0.0000 F   0  0  0  0  0  0  0  0  0  0  0  0
    8.2814    2.5783    0.0000 F   0  0  0  0  0  0  0  0  0  0  0  0
    6.4852    1.4497    0.0000 C   0  0  0  0  0  0  0  0  0  0  0  0
    5.4649    0.3501    0.0000 C   0  0  0  0  0  0  0  0  0  0  0  0
    4.0025    0.6839    0.0000 C   0  0  0  0  0  0  0  0  0  0  0  0
    3.5604    2.1172    0.0000 C   0  0  0  0  0  0  0  0  0  0  0  0
    2.0980    2.4510    0.0000 C   0  0  0  0  0  0  0  0  0  0  0  0
    1.6559    3.8844    0.0000 N   0  0  0  0  0  0  0  0  0  0  0  0
    0.1935    4.2182    0.0000 C   0  0  0  0  0  0  0  0  0  0  0  0
   -0.2487    5.6515    0.0000 C   0  0  0  0  0  0  0  0  0  0  0  0
    0.7716    6.7511    0.0000 C   0  0  0  0  0  0  0  0  0  0  0  0
    2.2340    6.4173    0.0000 C   0  0  0  0  0  0  0  0  0  0  0  0
    3.2543    7.5169    0.0000 C   0  0  0  0  0  0  0  0  0  0  0  0
    2.8121    8.9503    0.0000 C   0  0  0  0  0  0  0  0  0  0  0  0
    1.3497    9.2840    0.0000 C   0  0  0  0  0  0  0  0  0  0  0  0
    0.3295    8.1845    0.0000 C   0  0  0  0  0  0  0  0  0  0  0  0
   -0.8268    3.1186    0.0000 N   0  0  0  0  0  0  0  0  0  0  0  0
   -0.3846    1.6852    0.0000 C   0  0  0  0  0  0  0  0  0  0  0  0
    1.0777    1.3515    0.0000 C   0  0  0  0  0  0  0  0  0  0  0  0
    1.7286    0.0000    0.0000 C   0  0  0  0  0  0  0  0  0  0  0  0
    1.0777   -1.3515    0.0000 C   0  0  0  0  0  0  0  0  0  0  0  0
   -0.3846   -1.6852    0.0000 N   0  0  0  0  0  0  0  0  0  0  0  0
   -1.5574   -0.7500    0.0000 C   0  0  0  0  0  0  0  0  0  0  0  0
   -1.5574    0.7500    0.0000 C   0  0  0  0  0  0  0  0  0  0  0  0
    4.5807    3.2168    0.0000 C   0  0  0  0  0  0  0  0  0  0  0  0
    6.0430    2.8830    0.0000 C   0  0  0  0  0  0  0  0  0  0  0  0
  1  2  1  0
  2  3  1  0
  2  4  1  0
  2  5  1  0
  5  6  2  0
  6  7  1  0
  7  8  2  0
  8  9  1  0
  9 10  2  0
 10 11  1  0
 11 12  1  0
 12 13  1  0
 13 14  2  0
 14 15  1  0
 15 16  2  0
 16 17  1  0
 17 18  2  0
 11 19  2  0
 19 20  1  0
 20 21  2  0
 21 22  1  0
 22 23  1  0
 23 24  1  0
 24 25  1  0
 25 26  1  0
  8 27  1  0
 27 28  2  0
 28  5  1  0
 21  9  1  0
 18 13  1  0
 26 20  1  0
M  END
>  <assay_chembl_id>  (170) 
CHEMBL934033

>  <assay_description>  (170) 
Displacement of [3H]mesulergine from human recombinant 5HT2B receptor expressed in CHO cells

>  <parent_molecule_chembl_id>  (170) 
CHEMBL271418

>  <canonical_smiles>  (170) 
FC(F)(F)c1ccc(-c2nc(Cc3ccccc3)nc3c2CCNCC3)cc1

>  <standard_type>  (170) 
Ki

>  <standard_relation>  (170) 
=

>  <standard_value>  (170) 
22.0

>  <standard_units>  (170) 
nM

>  <target_pref_name>  (170) 
Serotonin 2b (5-HT2b) receptor

>  <target_chembl_id>  (170) 
CHEMBL1833

>  <target_organism>  (170) 
Homo sapiens

>  <pchembl_median>  (170) 
5.5

$$$$
CHEMBL269974
     RDKit          2D

 25 28  0  0  0  0  0  0  0  0999 V2000
    7.9476    1.1159    0.0000 C   0  0  0  0  0  0  0  0  0  0  0  0
    6.4852    1.4497    0.0000 C   0  0  0  0  0  0  0  0  0  0  0  0
    5.4649    0.3501    0.0000 C   0  0  0  0  0  0  0  0  0  0  0  0
    4.0025    0.6839    0.0000 C   0  0  0  0  0  0  0  0  0  0  0  0
    3.5604    2.1172    0.0000 C   0  0  0  0  0  0  0  0  0  0  0  0
    2.0980    2.4510    0.0000 C   0  0  0  0  0  0  0  0  0  0  0  0
    1.6559    3.8844    0.0000 N   0  0  0  0  0  0  0  0  0  0  0  0
    0.1935    4.2182    0.0000 C   0  0  0  0  0  0  0  0  0  0  0  0
   -0.2487    5.6515    0.0000 C   0  0  0  0  0  0  0  0  0  0  0  0
    0.7716    6.7511    0.0000 C   0  0  0  0  0  0  0  0  0  0  0  0
    2.2340    6.4173    0.0000 C   0  0  0  0  0  0  0  0  0  0  0  0
    3.2543    7.5169    0.0000 C   0  0  0  0  0  0  0  0  0  0  0  0
    2.8121    8.9503    0.0000 C   0  0  0  0  0  0  0  0  0  0  0  0
    1.3497    9.2840    0.0000 C   0  0  0  0  0  0  0  0  0  0  0  0
    0.3295    8.1845    0.0000 C   0  0  0  0  0  0  0  0  0  0  0  0
   -0.8268    3.1186    0.0000 N   0  0  0  0  0  0  0  0  0  0  0  0
   -0.3846    1.6852    0.0000 C   0  0  0  0  0  0  0  0  0  0  0  0
    1.0777    1.3515    0.0000 C   0  0  0  0  0  0  0  0  0  0  0  0
    1.7286    0.0000    0.0000 C   0  0  0  0  0  0  0  0  0  0  0  0
    1.0777   -1.3515    0.0000 C   0  0  0  0  0  0  0  0  0  0  0  0
   -0.3846   -1.6852    0.0000 N   0  0  0  0  0  0  0  0  0  0  0  0
   -1.5574   -0.7500    0.0000 C   0  0  0  0  0  0  0  0  0  0  0  0
   -1.5574    0.7500    0.0000 C   0  0  0  0  0  0  0  0  0  0  0  0
    4.5807    3.2168    0.0000 C   0  0  0  0  0  0  0  0  0  0  0  0
    6.0430    2.8830    0.0000 C   0  0  0  0  0  0  0  0  0  0  0  0
  1  2  1  0
  2  3  2  0
  3  4  1  0
  4  5  2  0
  5  6  1  0
  6  7  2  0
  7  8  1  0
  8  9  1  0
  9 10  1  0
 10 11  2  0
 11 12  1  0
 12 13  2  0
 13 14  1  0
 14 15  2  0
  8 16  2  0
 16 17  1  0
 17 18  2  0
 18 19  1  0
 19 20  1  0
 20 21  1  0
 21 22  1  0
 22 23  1  0
  5 24  1  0
 24 25  2  0
 25  2  1  0
 18  6  1  0
 15 10  1  0
 23 17  1  0
M  END
>  <assay_chembl_id>  (171) 
CHEMBL934033

>  <assay_description>  (171) 
Displacement of [3H]mesulergine from human recombinant 5HT2B receptor expressed in CHO cells

>  <parent_molecule_chembl_id>  (171) 
CHEMBL269974

>  <canonical_smiles>  (171) 
Cc1ccc(-c2nc(Cc3ccccc3)nc3c2CCNCC3)cc1

>  <standard_type>  (171) 
Ki

>  <standard_relation>  (171) 
=

>  <standard_value>  (171) 
2.5

>  <standard_units>  (171) 
nM

>  <target_pref_name>  (171) 
Serotonin 2b (5-HT2b) receptor

>  <target_chembl_id>  (171) 
CHEMBL1833

>  <target_organism>  (171) 
Homo sapiens

>  <pchembl_median>  (171) 
7.54

$$$$
CHEMBL270188
     RDKit          2D

 25 28  0  0  0  0  0  0  0  0999 V2000
    7.9476    1.1159    0.0000 F   0  0  0  0  0  0  0  0  0  0  0  0
    6.4852    1.4497    0.0000 C   0  0  0  0  0  0  0  0  0  0  0  0
    5.4649    0.3501    0.0000 C   0  0  0  0  0  0  0  0  0  0  0  0
    4.0025    0.6839    0.0000 C   0  0  0  0  0  0  0  0  0  0  0  0
    3.5604    2.1172    0.0000 C   0  0  0  0  0  0  0  0  0  0  0  0
    2.0980    2.4510    0.0000 C   0  0  0  0  0  0  0  0  0  0  0  0
    1.6559    3.8844    0.0000 N   0  0  0  0  0  0  0  0  0  0  0  0
    0.1935    4.2182    0.0000 C   0  0  0  0  0  0  0  0  0  0  0  0
   -0.2487    5.6515    0.0000 C   0  0  0  0  0  0  0  0  0  0  0  0
    0.7716    6.7511    0.0000 C   0  0  0  0  0  0  0  0  0  0  0  0
    2.2340    6.4173    0.0000 C   0  0  0  0  0  0  0  0  0  0  0  0
    3.2543    7.5169    0.0000 C   0  0  0  0  0  0  0  0  0  0  0  0
    2.8121    8.9503    0.0000 C   0  0  0  0  0  0  0  0  0  0  0  0
    1.3497    9.2840    0.0000 C   0  0  0  0  0  0  0  0  0  0  0  0
    0.3295    8.1845    0.0000 C   0  0  0  0  0  0  0  0  0  0  0  0
   -0.8268    3.1186    0.0000 N   0  0  0  0  0  0  0  0  0  0  0  0
   -0.3846    1.6852    0.0000 C   0  0  0  0  0  0  0  0  0  0  0  0
    1.0777    1.3515    0.0000 C   0  0  0  0  0  0  0  0  0  0  0  0
    1.7286    0.0000    0.0000 C   0  0  0  0  0  0  0  0  0  0  0  0
    1.0777   -1.3515    0.0000 C   0  0  0  0  0  0  0  0  0  0  0  0
   -0.3846   -1.6852    0.0000 N   0  0  0  0  0  0  0  0  0  0  0  0
   -1.5574   -0.7500    0.0000 C   0  0  0  0  0  0  0  0  0  0  0  0
   -1.5574    0.7500    0.0000 C   0  0  0  0  0  0  0  0  0  0  0  0
    4.5807    3.2168    0.0000 C   0  0  0  0  0  0  0  0  0  0  0  0
    6.0430    2.8830    0.0000 C   0  0  0  0  0  0  0  0  0  0  0  0
  1  2  1  0
  2  3  2  0
  3  4  1  0
  4  5  2  0
  5  6  1  0
  6  7  2  0
  7  8  1  0
  8  9  1  0
  9 10  1  0
 10 11  2  0
 11 12  1  0
 12 13  2  0
 13 14  1  0
 14 15  2  0
  8 16  2  0
 16 17  1  0
 17 18  2  0
 18 19  1  0
 19 20  1  0
 20 21  1  0
 21 22  1  0
 22 23  1  0
  5 24  1  0
 24 25  2  0
 25  2  1  0
 18  6  1  0
 15 10  1  0
 23 17  1  0
M  END
>  <assay_chembl_id>  (172) 
CHEMBL934033

>  <assay_description>  (172) 
Displacement of [3H]mesulergine from human recombinant 5HT2B receptor expressed in CHO cells

>  <parent_molecule_chembl_id>  (172) 
CHEMBL270188

>  <canonical_smiles>  (172) 
Fc1ccc(-c2nc(Cc3ccccc3)nc3c2CCNCC3)cc1

>  <standard_type>  (172) 
Ki

>  <standard_relation>  (172) 
=

>  <standard_value>  (172) 
30.0

>  <standard_units>  (172) 
nM

>  <target_pref_name>  (172) 
Serotonin 2b (5-HT2b) receptor

>  <target_chembl_id>  (172) 
CHEMBL1833

>  <target_organism>  (172) 
Homo sapiens

>  <pchembl_median>  (172) 
7.16

$$$$
CHEMBL402164
     RDKit          2D

 26 29  0  0  0  0  0  0  0  0999 V2000
    3.8324   10.0498    0.0000 F   0  0  0  0  0  0  0  0  0  0  0  0
    2.8121    8.9503    0.0000 C   0  0  0  0  0  0  0  0  0  0  0  0
    3.2543    7.5169    0.0000 C   0  0  0  0  0  0  0  0  0  0  0  0
    2.2340    6.4173    0.0000 C   0  0  0  0  0  0  0  0  0  0  0  0
    0.7716    6.7511    0.0000 C   0  0  0  0  0  0  0  0  0  0  0  0
   -0.2487    5.6515    0.0000 C   0  0  0  0  0  0  0  0  0  0  0  0
    0.1935    4.2182    0.0000 C   0  0  0  0  0  0  0  0  0  0  0  0
   -0.8268    3.1186    0.0000 N   0  0  0  0  0  0  0  0  0  0  0  0
   -0.3846    1.6852    0.0000 C   0  0  0  0  0  0  0  0  0  0  0  0
    1.0777    1.3515    0.0000 C   0  0  0  0  0  0  0  0  0  0  0  0
    2.0980    2.4510    0.0000 C   0  0  0  0  0  0  0  0  0  0  0  0
    3.5604    2.1172    0.0000 C   0  0  0  0  0  0  0  0  0  0  0  0
    4.0025    0.6839    0.0000 C   0  0  0  0  0  0  0  0  0  0  0  0
    5.4649    0.3501    0.0000 C   0  0  0  0  0  0  0  0  0  0  0  0
    6.4852    1.4497    0.0000 C   0  0  0  0  0  0  0  0  0  0  0  0
    7.9476    1.1159    0.0000 F   0  0  0  0  0  0  0  0  0  0  0  0
    6.0430    2.8830    0.0000 C   0  0  0  0  0  0  0  0  0  0  0  0
    4.5807    3.2168    0.0000 C   0  0  0  0  0  0  0  0  0  0  0  0
    1.6559    3.8844    0.0000 N   0  0  0  0  0  0  0  0  0  0  0  0
    1.7286    0.0000    0.0000 C   0  0  0  0  0  0  0  0  0  0  0  0
    1.0777   -1.3515    0.0000 C   0  0  0  0  0  0  0  0  0  0  0  0
   -0.3846   -1.6852    0.0000 N   0  0  0  0  0  0  0  0  0  0  0  0
   -1.5574   -0.7500    0.0000 C   0  0  0  0  0  0  0  0  0  0  0  0
   -1.5574    0.7500    0.0000 C   0  0  0  0  0  0  0  0  0  0  0  0
    0.3295    8.1845    0.0000 C   0  0  0  0  0  0  0  0  0  0  0  0
    1.3497    9.2840    0.0000 C   0  0  0  0  0  0  0  0  0  0  0  0
  1  2  1  0
  2  3  2  0
  3  4  1  0
  4  5  2  0
  5  6  1  0
  6  7  1  0
  7  8  2  0
  8  9  1  0
  9 10  2  0
 10 11  1  0
 11 12  1  0
 12 13  2  0
 13 14  1  0
 14 15  2  0
 15 16  1  0
 15 17  1  0
 17 18  2  0
 11 19  2  0
 10 20  1  0
 20 21  1  0
 21 22  1  0
 22 23  1  0
 23 24  1  0
  5 25  1  0
 25 26  2  0
 26  2  1  0
 19  7  1  0
 24  9  1  0
 18 12  1  0
M  END
>  <assay_chembl_id>  (173) 
CHEMBL934033

>  <assay_description>  (173) 
Displacement of [3H]mesulergine from human recombinant 5HT2B receptor expressed in CHO cells

>  <parent_molecule_chembl_id>  (173) 
CHEMBL402164

>  <canonical_smiles>  (173) 
Fc1ccc(Cc2nc3c(c(-c4ccc(F)cc4)n2)CCNCC3)cc1

>  <standard_type>  (173) 
Ki

>  <standard_relation>  (173) 
=

>  <standard_value>  (173) 
40.0

>  <standard_units>  (173) 
nM

>  <target_pref_name>  (173) 
Serotonin 2b (5-HT2b) receptor

>  <target_chembl_id>  (173) 
CHEMBL1833

>  <target_organism>  (173) 
Homo sapiens

>  <pchembl_median>  (173) 
6.82

$$$$
CHEMBL255802
     RDKit          2D

 24 27  0  0  0  0  0  0  0  0999 V2000
    9.4100    0.7821    0.0000 N   0  0  0  0  0  0  0  0  0  0  0  0
    7.9476    1.1159    0.0000 C   0  0  0  0  0  0  0  0  0  0  0  0
    6.4852    1.4497    0.0000 C   0  0  0  0  0  0  0  0  0  0  0  0
    5.4649    0.3501    0.0000 C   0  0  0  0  0  0  0  0  0  0  0  0
    4.0025    0.6839    0.0000 C   0  0  0  0  0  0  0  0  0  0  0  0
    3.5604    2.1172    0.0000 C   0  0  0  0  0  0  0  0  0  0  0  0
    2.0980    2.4510    0.0000 C   0  0  0  0  0  0  0  0  0  0  0  0
    1.6559    3.8844    0.0000 N   0  0  0  0  0  0  0  0  0  0  0  0
    0.1935    4.2182    0.0000 C   0  0  0  0  0  0  0  0  0  0  0  0
   -0.2487    5.6515    0.0000 C   0  0  0  0  0  0  0  0  0  0  0  0
   -1.6681    6.1363    0.0000 C   0  0  0  0  0  0  0  0  0  0  0  0
   -1.6457    7.6362    0.0000 C   0  0  0  0  0  0  0  0  0  0  0  0
   -0.2123    8.0783    0.0000 C   0  0  0  0  0  0  0  0  0  0  0  0
    0.6511    6.8517    0.0000 C   0  0  0  0  0  0  0  0  0  0  0  0
   -0.8268    3.1186    0.0000 N   0  0  0  0  0  0  0  0  0  0  0  0
   -0.3846    1.6852    0.0000 C   0  0  0  0  0  0  0  0  0  0  0  0
    1.0777    1.3515    0.0000 C   0  0  0  0  0  0  0  0  0  0  0  0
    1.7286    0.0000    0.0000 C   0  0  0  0  0  0  0  0  0  0  0  0
    1.0777   -1.3515    0.0000 C   0  0  0  0  0  0  0  0  0  0  0  0
   -0.3846   -1.6852    0.0000 N   0  0  0  0  0  0  0  0  0  0  0  0
   -1.5574   -0.7500    0.0000 C   0  0  0  0  0  0  0  0  0  0  0  0
   -1.5574    0.7500    0.0000 C   0  0  0  0  0  0  0  0  0  0  0  0
    4.5807    3.2168    0.0000 C   0  0  0  0  0  0  0  0  0  0  0  0
    6.0430    2.8830    0.0000 C   0  0  0  0  0  0  0  0  0  0  0  0
  1  2  3  0
  2  3  1  0
  3  4  2  0
  4  5  1  0
  5  6  2  0
  6  7  1  0
  7  8  2  0
  8  9  1  0
  9 10  1  0
 10 11  1  0
 11 12  1  0
 12 13  1  0
 13 14  1  0
  9 15  2  0
 15 16  1  0
 16 17  2  0
 17 18  1  0
 18 19  1  0
 19 20  1  0
 20 21  1  0
 21 22  1  0
  6 23  1  0
 23 24  2  0
 24  3  1  0
 17  7  1  0
 14 10  1  0
 22 16  1  0
M  END
>  <assay_chembl_id>  (174) 
CHEMBL934033

>  <assay_description>  (174) 
Displacement of [3H]mesulergine from human recombinant 5HT2B receptor expressed in CHO cells

>  <parent_molecule_chembl_id>  (174) 
CHEMBL255802

>  <canonical_smiles>  (174) 
N#Cc1ccc(-c2nc(C3CCCC3)nc3c2CCNCC3)cc1

>  <standard_type>  (174) 
Ki

>  <standard_relation>  (174) 
=

>  <standard_value>  (174) 
20.0

>  <standard_units>  (174) 
nM

>  <target_pref_name>  (174) 
Serotonin 2b (5-HT2b) receptor

>  <target_chembl_id>  (174) 
CHEMBL1833

>  <target_organism>  (174) 
Homo sapiens

>  <pchembl_median>  (174) 
7.9

$$$$
CHEMBL401509
     RDKit          2D

 24 27  0  0  0  0  0  0  0  0999 V2000
    8.3897   -0.3175    0.0000 C   0  0  0  0  0  0  0  0  0  0  0  0
    7.9476    1.1159    0.0000 O   0  0  0  0  0  0  0  0  0  0  0  0
    6.4852    1.4497    0.0000 C   0  0  0  0  0  0  0  0  0  0  0  0
    5.4649    0.3501    0.0000 C   0  0  0  0  0  0  0  0  0  0  0  0
    4.0025    0.6839    0.0000 C   0  0  0  0  0  0  0  0  0  0  0  0
    3.5604    2.1172    0.0000 C   0  0  0  0  0  0  0  0  0  0  0  0
    2.0980    2.4510    0.0000 C   0  0  0  0  0  0  0  0  0  0  0  0
    1.6559    3.8844    0.0000 N   0  0  0  0  0  0  0  0  0  0  0  0
    0.1935    4.2182    0.0000 C   0  0  0  0  0  0  0  0  0  0  0  0
   -0.2487    5.6515    0.0000 C   0  0  0  0  0  0  0  0  0  0  0  0
   -1.6681    6.1363    0.0000 C   0  0  0  0  0  0  0  0  0  0  0  0
   -1.6457    7.6362    0.0000 C   0  0  0  0  0  0  0  0  0  0  0  0
   -0.2123    8.0783    0.0000 C   0  0  0  0  0  0  0  0  0  0  0  0
    0.6511    6.8517    0.0000 C   0  0  0  0  0  0  0  0  0  0  0  0
   -0.8268    3.1186    0.0000 N   0  0  0  0  0  0  0  0  0  0  0  0
   -0.3846    1.6852    0.0000 C   0  0  0  0  0  0  0  0  0  0  0  0
    1.0777    1.3515    0.0000 C   0  0  0  0  0  0  0  0  0  0  0  0
    1.7286    0.0000    0.0000 C   0  0  0  0  0  0  0  0  0  0  0  0
    1.0777   -1.3515    0.0000 C   0  0  0  0  0  0  0  0  0  0  0  0
   -0.3846   -1.6852    0.0000 N   0  0  0  0  0  0  0  0  0  0  0  0
   -1.5574   -0.7500    0.0000 C   0  0  0  0  0  0  0  0  0  0  0  0
   -1.5574    0.7500    0.0000 C   0  0  0  0  0  0  0  0  0  0  0  0
    4.5807    3.2168    0.0000 C   0  0  0  0  0  0  0  0  0  0  0  0
    6.0430    2.8830    0.0000 C   0  0  0  0  0  0  0  0  0  0  0  0
  1  2  1  0
  2  3  1  0
  3  4  2  0
  4  5  1  0
  5  6  2  0
  6  7  1  0
  7  8  2  0
  8  9  1  0
  9 10  1  0
 10 11  1  0
 11 12  1  0
 12 13  1  0
 13 14  1  0
  9 15  2  0
 15 16  1  0
 16 17  2  0
 17 18  1  0
 18 19  1  0
 19 20  1  0
 20 21  1  0
 21 22  1  0
  6 23  1  0
 23 24  2  0
 24  3  1  0
 17  7  1  0
 14 10  1  0
 22 16  1  0
M  END
>  <assay_chembl_id>  (175) 
CHEMBL934033

>  <assay_description>  (175) 
Displacement of [3H]mesulergine from human recombinant 5HT2B receptor expressed in CHO cells

>  <parent_molecule_chembl_id>  (175) 
CHEMBL401509

>  <canonical_smiles>  (175) 
COc1ccc(-c2nc(C3CCCC3)nc3c2CCNCC3)cc1

>  <standard_type>  (175) 
Ki

>  <standard_relation>  (175) 
=

>  <standard_value>  (175) 
4.8

>  <standard_units>  (175) 
nM

>  <target_pref_name>  (175) 
Serotonin 2b (5-HT2b) receptor

>  <target_chembl_id>  (175) 
CHEMBL1833

>  <target_organism>  (175) 
Homo sapiens

>  <pchembl_median>  (175) 
6.31

$$$$
CHEMBL272082
     RDKit          2D

 23 26  0  0  0  0  0  0  0  0999 V2000
    7.9476    1.1159    0.0000 C   0  0  0  0  0  0  0  0  0  0  0  0
    6.4852    1.4497    0.0000 C   0  0  0  0  0  0  0  0  0  0  0  0
    5.4649    0.3501    0.0000 C   0  0  0  0  0  0  0  0  0  0  0  0
    4.0025    0.6839    0.0000 C   0  0  0  0  0  0  0  0  0  0  0  0
    3.5604    2.1172    0.0000 C   0  0  0  0  0  0  0  0  0  0  0  0
    2.0980    2.4510    0.0000 C   0  0  0  0  0  0  0  0  0  0  0  0
    1.6559    3.8844    0.0000 N   0  0  0  0  0  0  0  0  0  0  0  0
    0.1935    4.2182    0.0000 C   0  0  0  0  0  0  0  0  0  0  0  0
   -0.2487    5.6515    0.0000 C   0  0  0  0  0  0  0  0  0  0  0  0
   -1.6681    6.1363    0.0000 C   0  0  0  0  0  0  0  0  0  0  0  0
   -1.6457    7.6362    0.0000 C   0  0  0  0  0  0  0  0  0  0  0  0
   -0.2123    8.0783    0.0000 C   0  0  0  0  0  0  0  0  0  0  0  0
    0.6511    6.8517    0.0000 C   0  0  0  0  0  0  0  0  0  0  0  0
   -0.8268    3.1186    0.0000 N   0  0  0  0  0  0  0  0  0  0  0  0
   -0.3846    1.6852    0.0000 C   0  0  0  0  0  0  0  0  0  0  0  0
    1.0777    1.3515    0.0000 C   0  0  0  0  0  0  0  0  0  0  0  0
    1.7286    0.0000    0.0000 C   0  0  0  0  0  0  0  0  0  0  0  0
    1.0777   -1.3515    0.0000 C   0  0  0  0  0  0  0  0  0  0  0  0
   -0.3846   -1.6852    0.0000 N   0  0  0  0  0  0  0  0  0  0  0  0
   -1.5574   -0.7500    0.0000 C   0  0  0  0  0  0  0  0  0  0  0  0
   -1.5574    0.7500    0.0000 C   0  0  0  0  0  0  0  0  0  0  0  0
    4.5807    3.2168    0.0000 C   0  0  0  0  0  0  0  0  0  0  0  0
    6.0430    2.8830    0.0000 C   0  0  0  0  0  0  0  0  0  0  0  0
  1  2  1  0
  2  3  2  0
  3  4  1  0
  4  5  2  0
  5  6  1  0
  6  7  2  0
  7  8  1  0
  8  9  1  0
  9 10  1  0
 10 11  1  0
 11 12  1  0
 12 13  1  0
  8 14  2  0
 14 15  1  0
 15 16  2  0
 16 17  1  0
 17 18  1  0
 18 19  1  0
 19 20  1  0
 20 21  1  0
  5 22  1  0
 22 23  2  0
 23  2  1  0
 16  6  1  0
 13  9  1  0
 21 15  1  0
M  END
>  <assay_chembl_id>  (176) 
CHEMBL934033

>  <assay_description>  (176) 
Displacement of [3H]mesulergine from human recombinant 5HT2B receptor expressed in CHO cells

>  <parent_molecule_chembl_id>  (176) 
CHEMBL272082

>  <canonical_smiles>  (176) 
Cc1ccc(-c2nc(C3CCCC3)nc3c2CCNCC3)cc1

>  <standard_type>  (176) 
Ki

>  <standard_relation>  (176) 
=

>  <standard_value>  (176) 
1.0

>  <standard_units>  (176) 
nM

>  <target_pref_name>  (176) 
Serotonin 2b (5-HT2b) receptor

>  <target_chembl_id>  (176) 
CHEMBL1833

>  <target_organism>  (176) 
Homo sapiens

>  <pchembl_median>  (176) 
6.33

$$$$
CHEMBL402357
     RDKit          2D

 23 26  0  0  0  0  0  0  0  0999 V2000
    7.9476    1.1159    0.0000 F   0  0  0  0  0  0  0  0  0  0  0  0
    6.4852    1.4497    0.0000 C   0  0  0  0  0  0  0  0  0  0  0  0
    5.4649    0.3501    0.0000 C   0  0  0  0  0  0  0  0  0  0  0  0
    4.0025    0.6839    0.0000 C   0  0  0  0  0  0  0  0  0  0  0  0
    3.5604    2.1172    0.0000 C   0  0  0  0  0  0  0  0  0  0  0  0
    2.0980    2.4510    0.0000 C   0  0  0  0  0  0  0  0  0  0  0  0
    1.6559    3.8844    0.0000 N   0  0  0  0  0  0  0  0  0  0  0  0
    0.1935    4.2182    0.0000 C   0  0  0  0  0  0  0  0  0  0  0  0
   -0.2487    5.6515    0.0000 C   0  0  0  0  0  0  0  0  0  0  0  0
   -1.6681    6.1363    0.0000 C   0  0  0  0  0  0  0  0  0  0  0  0
   -1.6457    7.6362    0.0000 C   0  0  0  0  0  0  0  0  0  0  0  0
   -0.2123    8.0783    0.0000 C   0  0  0  0  0  0  0  0  0  0  0  0
    0.6511    6.8517    0.0000 C   0  0  0  0  0  0  0  0  0  0  0  0
   -0.8268    3.1186    0.0000 N   0  0  0  0  0  0  0  0  0  0  0  0
   -0.3846    1.6852    0.0000 C   0  0  0  0  0  0  0  0  0  0  0  0
    1.0777    1.3515    0.0000 C   0  0  0  0  0  0  0  0  0  0  0  0
    1.7286    0.0000    0.0000 C   0  0  0  0  0  0  0  0  0  0  0  0
    1.0777   -1.3515    0.0000 C   0  0  0  0  0  0  0  0  0  0  0  0
   -0.3846   -1.6852    0.0000 N   0  0  0  0  0  0  0  0  0  0  0  0
   -1.5574   -0.7500    0.0000 C   0  0  0  0  0  0  0  0  0  0  0  0
   -1.5574    0.7500    0.0000 C   0  0  0  0  0  0  0  0  0  0  0  0
    4.5807    3.2168    0.0000 C   0  0  0  0  0  0  0  0  0  0  0  0
    6.0430    2.8830    0.0000 C   0  0  0  0  0  0  0  0  0  0  0  0
  1  2  1  0
  2  3  2  0
  3  4  1  0
  4  5  2  0
  5  6  1  0
  6  7  2  0
  7  8  1  0
  8  9  1  0
  9 10  1  0
 10 11  1  0
 11 12  1  0
 12 13  1  0
  8 14  2  0
 14 15  1  0
 15 16  2  0
 16 17  1  0
 17 18  1  0
 18 19  1  0
 19 20  1  0
 20 21  1  0
  5 22  1  0
 22 23  2  0
 23  2  1  0
 16  6  1  0
 13  9  1  0
 21 15  1  0
M  END
>  <assay_chembl_id>  (177) 
CHEMBL934033

>  <assay_description>  (177) 
Displacement of [3H]mesulergine from human recombinant 5HT2B receptor expressed in CHO cells

>  <parent_molecule_chembl_id>  (177) 
CHEMBL402357

>  <canonical_smiles>  (177) 
Fc1ccc(-c2nc(C3CCCC3)nc3c2CCNCC3)cc1

>  <standard_type>  (177) 
Ki

>  <standard_relation>  (177) 
=

>  <standard_value>  (177) 
30.0

>  <standard_units>  (177) 
nM

>  <target_pref_name>  (177) 
Serotonin 2b (5-HT2b) receptor

>  <target_chembl_id>  (177) 
CHEMBL1833

>  <target_organism>  (177) 
Homo sapiens

>  <pchembl_median>  (177) 
7.13

$$$$
CHEMBL255543
     RDKit          2D

 21 23  0  0  0  0  0  0  0  0999 V2000
    0.7716    6.7511    0.0000 C   0  0  0  0  0  0  0  0  0  0  0  0
   -0.2487    5.6515    0.0000 C   0  0  0  0  0  0  0  0  0  0  0  0
   -1.7110    5.9853    0.0000 C   0  0  0  0  0  0  0  0  0  0  0  0
    0.1935    4.2182    0.0000 C   0  0  0  0  0  0  0  0  0  0  0  0
   -0.8268    3.1186    0.0000 N   0  0  0  0  0  0  0  0  0  0  0  0
   -0.3846    1.6852    0.0000 C   0  0  0  0  0  0  0  0  0  0  0  0
    1.0777    1.3515    0.0000 C   0  0  0  0  0  0  0  0  0  0  0  0
    2.0980    2.4510    0.0000 C   0  0  0  0  0  0  0  0  0  0  0  0
    3.5604    2.1172    0.0000 C   0  0  0  0  0  0  0  0  0  0  0  0
    4.0025    0.6839    0.0000 C   0  0  0  0  0  0  0  0  0  0  0  0
    5.4649    0.3501    0.0000 C   0  0  0  0  0  0  0  0  0  0  0  0
    6.4852    1.4497    0.0000 C   0  0  0  0  0  0  0  0  0  0  0  0
    7.9476    1.1159    0.0000 F   0  0  0  0  0  0  0  0  0  0  0  0
    6.0430    2.8830    0.0000 C   0  0  0  0  0  0  0  0  0  0  0  0
    4.5807    3.2168    0.0000 C   0  0  0  0  0  0  0  0  0  0  0  0
    1.6559    3.8844    0.0000 N   0  0  0  0  0  0  0  0  0  0  0  0
    1.7286    0.0000    0.0000 C   0  0  0  0  0  0  0  0  0  0  0  0
    1.0777   -1.3515    0.0000 C   0  0  0  0  0  0  0  0  0  0  0  0
   -0.3846   -1.6852    0.0000 N   0  0  0  0  0  0  0  0  0  0  0  0
   -1.5574   -0.7500    0.0000 C   0  0  0  0  0  0  0  0  0  0  0  0
   -1.5574    0.7500    0.0000 C   0  0  0  0  0  0  0  0  0  0  0  0
  1  2  1  0
  2  3  1  0
  2  4  1  0
  4  5  2  0
  5  6  1  0
  6  7  2  0
  7  8  1  0
  8  9  1  0
  9 10  2  0
 10 11  1  0
 11 12  2  0
 12 13  1  0
 12 14  1  0
 14 15  2  0
  8 16  2  0
  7 17  1  0
 17 18  1  0
 18 19  1  0
 19 20  1  0
 20 21  1  0
 16  4  1  0
 21  6  1  0
 15  9  1  0
M  END
>  <assay_chembl_id>  (178) 
CHEMBL934033

>  <assay_description>  (178) 
Displacement of [3H]mesulergine from human recombinant 5HT2B receptor expressed in CHO cells

>  <parent_molecule_chembl_id>  (178) 
CHEMBL255543

>  <canonical_smiles>  (178) 
CC(C)c1nc2c(c(-c3ccc(F)cc3)n1)CCNCC2

>  <standard_type>  (178) 
Ki

>  <standard_relation>  (178) 
=

>  <standard_value>  (178) 
20.0

>  <standard_units>  (178) 
nM

>  <target_pref_name>  (178) 
Serotonin 2b (5-HT2b) receptor

>  <target_chembl_id>  (178) 
CHEMBL1833

>  <target_organism>  (178) 
Homo sapiens

>  <pchembl_median>  (178) 
6.19

$$$$
CHEMBL407909
     RDKit          2D

 18 20  0  0  0  0  0  0  0  0999 V2000
    3.5260   -1.2990    0.0000 C   0  0  0  0  0  0  0  0  0  0  0  0
    2.7760    0.0000    0.0000 C   0  0  0  0  0  0  0  0  0  0  0  0
    1.2760    0.0000    0.0000 C   0  0  0  0  0  0  0  0  0  0  0  0
    0.3943    1.2135    0.0000 C   0  0  0  0  0  0  0  0  0  0  0  0
   -1.0323    0.7500    0.0000 C   0  0  0  0  0  0  0  0  0  0  0  0
   -1.0323   -0.7500    0.0000 C   0  0  0  0  0  0  0  0  0  0  0  0
   -2.3313   -1.5000    0.0000 C   0  0  0  0  0  0  0  0  0  0  0  0
   -3.6304   -0.7500    0.0000 C   0  0  0  0  0  0  0  0  0  0  0  0
   -3.6304    0.7500    0.0000 C   0  0  0  0  0  0  0  0  0  0  0  0
   -4.7451    1.7537    0.0000 C   0  0  0  0  0  0  0  0  0  0  0  0
   -4.1350    3.1240    0.0000 N   0  0  0  0  0  0  0  0  0  0  0  0
   -2.6432    2.9672    0.0000 N   0  0  0  0  0  0  0  0  0  0  0  0
   -1.6395    4.0819    0.0000 C   0  0  0  0  0  0  0  0  0  0  0  0
   -2.1030    5.5085    0.0000 C   0  0  0  0  0  0  0  0  0  0  0  0
   -1.0993    6.6232    0.0000 C   0  0  0  0  0  0  0  0  0  0  0  0
   -3.5702    5.8204    0.0000 N   0  0  0  0  0  0  0  0  0  0  0  0
   -2.3313    1.5000    0.0000 C   0  0  0  0  0  0  0  0  0  0  0  0
    0.3943   -1.2135    0.0000 O   0  0  0  0  0  0  0  0  0  0  0  0
  1  2  1  0
  2  3  1  0
  3  4  2  0
  4  5  1  0
  5  6  2  0
  6  7  1  0
  7  8  2  0
  8  9  1  0
  9 10  1  0
 10 11  2  0
 11 12  1  0
 12 13  1  0
 13 14  1  0
 14 15  1  1
 14 16  1  0
 12 17  1  0
  6 18  1  0
 18  3  1  0
 17  5  1  0
 17  9  2  0
M  END
>  <assay_chembl_id>  (179) 
CHEMBL936731

>  <assay_description>  (179) 
Displacement of [3H]5-HT from human 5HT2B receptor expressed in HEK293-EBNA cells

>  <parent_molecule_chembl_id>  (179) 
CHEMBL407909

>  <canonical_smiles>  (179) 
CCc1cc2c(ccc3cnn(C[C@H](C)N)c32)o1

>  <standard_type>  (179) 
Ki

>  <standard_relation>  (179) 
=

>  <standard_value>  (179) 
2.5

>  <standard_units>  (179) 
nM

>  <target_pref_name>  (179) 
Serotonin 2b (5-HT2b) receptor

>  <target_chembl_id>  (179) 
CHEMBL1833

>  <target_organism>  (179) 
Homo sapiens

>  <pchembl_median>  (179) 
5.41

$$$$
CHEMBL261489
     RDKit          2D

 14 16  0  0  0  0  0  0  0  0999 V2000
   -2.0087    5.2384    0.0000 C   0  0  0  0  0  0  0  0  0  0  0  0
   -2.1878    3.7491    0.0000 C   0  0  0  0  0  0  0  0  0  0  0  0
   -0.8268    3.1186    0.0000 C   0  0  0  0  0  0  0  0  0  0  0  0
   -0.3846    1.6852    0.0000 C   0  0  0  0  0  0  0  0  0  0  0  0
    1.0777    1.3515    0.0000 C   0  0  0  0  0  0  0  0  0  0  0  0
    2.0980    2.4510    0.0000 C   0  0  0  0  0  0  0  0  0  0  0  0
    1.6559    3.8844    0.0000 C   0  0  0  0  0  0  0  0  0  0  0  0
    0.1935    4.2182    0.0000 C   0  0  0  0  0  0  0  0  0  0  0  0
   -0.5370    5.5283    0.0000 O   0  0  0  0  0  0  0  0  0  0  0  0
    1.7286    0.0000    0.0000 C   0  0  0  0  0  0  0  0  0  0  0  0
    1.0777   -1.3515    0.0000 C   0  0  0  0  0  0  0  0  0  0  0  0
   -0.3846   -1.6852    0.0000 N   0  0  0  0  0  0  0  0  0  0  0  0
   -1.5574   -0.7500    0.0000 C   0  0  0  0  0  0  0  0  0  0  0  0
   -1.5574    0.7500    0.0000 C   0  0  0  0  0  0  0  0  0  0  0  0
  1  2  2  0
  2  3  1  0
  3  4  2  0
  4  5  1  0
  5  6  2  0
  6  7  1  0
  7  8  2  0
  8  9  1  0
  5 10  1  0
 10 11  1  0
 11 12  1  0
 12 13  1  0
 13 14  1  0
  9  1  1  0
  8  3  1  0
 14  4  1  0
M  END
>  <assay_chembl_id>  (180) 
CHEMBL936731

>  <assay_description>  (180) 
Displacement of [3H]5-HT from human 5HT2B receptor expressed in HEK293-EBNA cells

>  <parent_molecule_chembl_id>  (180) 
CHEMBL261489

>  <canonical_smiles>  (180) 
c1cc2c3c(ccc2o1)CCNCC3

>  <standard_type>  (180) 
Ki

>  <standard_relation>  (180) 
=

>  <standard_value>  (180) 
90.0

>  <standard_units>  (180) 
nM

>  <target_pref_name>  (180) 
Serotonin 2b (5-HT2b) receptor

>  <target_chembl_id>  (180) 
CHEMBL1833

>  <target_organism>  (180) 
Homo sapiens

>  <pchembl_median>  (180) 
5.63

$$$$
CHEMBL261490
     RDKit          2D

 14 16  0  0  0  0  0  0  0  0999 V2000
    4.0827    3.8481    0.0000 C   0  0  0  0  0  0  0  0  0  0  0  0
    2.8825    4.7478    0.0000 C   0  0  0  0  0  0  0  0  0  0  0  0
    1.6559    3.8844    0.0000 C   0  0  0  0  0  0  0  0  0  0  0  0
    0.1935    4.2182    0.0000 C   0  0  0  0  0  0  0  0  0  0  0  0
   -0.8268    3.1186    0.0000 C   0  0  0  0  0  0  0  0  0  0  0  0
   -0.3846    1.6852    0.0000 C   0  0  0  0  0  0  0  0  0  0  0  0
    1.0777    1.3515    0.0000 C   0  0  0  0  0  0  0  0  0  0  0  0
    2.0980    2.4510    0.0000 C   0  0  0  0  0  0  0  0  0  0  0  0
    3.5978    2.4286    0.0000 O   0  0  0  0  0  0  0  0  0  0  0  0
    1.7286    0.0000    0.0000 C   0  0  0  0  0  0  0  0  0  0  0  0
    1.0777   -1.3515    0.0000 C   0  0  0  0  0  0  0  0  0  0  0  0
   -0.3846   -1.6852    0.0000 N   0  0  0  0  0  0  0  0  0  0  0  0
   -1.5574   -0.7500    0.0000 C   0  0  0  0  0  0  0  0  0  0  0  0
   -1.5574    0.7500    0.0000 C   0  0  0  0  0  0  0  0  0  0  0  0
  1  2  2  0
  2  3  1  0
  3  4  2  0
  4  5  1  0
  5  6  2  0
  6  7  1  0
  7  8  2  0
  8  9  1  0
  7 10  1  0
 10 11  1  0
 11 12  1  0
 12 13  1  0
 13 14  1  0
  9  1  1  0
  8  3  1  0
 14  6  1  0
M  END
>  <assay_chembl_id>  (181) 
CHEMBL936731

>  <assay_description>  (181) 
Displacement of [3H]5-HT from human 5HT2B receptor expressed in HEK293-EBNA cells

>  <parent_molecule_chembl_id>  (181) 
CHEMBL261490

>  <canonical_smiles>  (181) 
c1cc2ccc3c(c2o1)CCNCC3

>  <standard_type>  (181) 
Ki

>  <standard_relation>  (181) 
=

>  <standard_value>  (181) 
34.0

>  <standard_units>  (181) 
nM

>  <target_pref_name>  (181) 
Serotonin 2b (5-HT2b) receptor

>  <target_chembl_id>  (181) 
CHEMBL1833

>  <target_organism>  (181) 
Homo sapiens

>  <pchembl_median>  (181) 
7.54

$$$$
CHEMBL405717
     RDKit          2D

 14 15  0  0  0  0  0  0  0  0999 V2000
    4.1385    4.6502    0.0000 C   0  0  0  0  0  0  0  0  0  0  0  0
    2.6761    4.9840    0.0000 N   0  0  0  0  0  0  0  0  0  0  0  0
    1.6559    3.8844    0.0000 C   0  0  0  0  0  0  0  0  0  0  0  0
    0.1935    4.2182    0.0000 C   0  0  0  0  0  0  0  0  0  0  0  0
   -0.8268    3.1186    0.0000 C   0  0  0  0  0  0  0  0  0  0  0  0
   -0.3846    1.6852    0.0000 C   0  0  0  0  0  0  0  0  0  0  0  0
    1.0777    1.3515    0.0000 C   0  0  0  0  0  0  0  0  0  0  0  0
    2.0980    2.4510    0.0000 C   0  0  0  0  0  0  0  0  0  0  0  0
    3.5604    2.1172    0.0000 Cl  0  0  0  0  0  0  0  0  0  0  0  0
    1.7286    0.0000    0.0000 C   0  0  0  0  0  0  0  0  0  0  0  0
    1.0777   -1.3515    0.0000 C   0  0  0  0  0  0  0  0  0  0  0  0
   -0.3846   -1.6852    0.0000 N   0  0  0  0  0  0  0  0  0  0  0  0
   -1.5574   -0.7500    0.0000 C   0  0  0  0  0  0  0  0  0  0  0  0
   -1.5574    0.7500    0.0000 C   0  0  0  0  0  0  0  0  0  0  0  0
  1  2  1  0
  2  3  1  0
  3  4  2  0
  4  5  1  0
  5  6  2  0
  6  7  1  0
  7  8  2  0
  8  9  1  0
  7 10  1  0
 10 11  1  0
 11 12  1  0
 12 13  1  0
 13 14  1  0
  8  3  1  0
 14  6  1  0
M  END
>  <assay_chembl_id>  (182) 
CHEMBL936731

>  <assay_description>  (182) 
Displacement of [3H]5-HT from human 5HT2B receptor expressed in HEK293-EBNA cells

>  <parent_molecule_chembl_id>  (182) 
CHEMBL405717

>  <canonical_smiles>  (182) 
CNc1ccc2c(c1Cl)CCNCC2

>  <standard_type>  (182) 
Ki

>  <standard_relation>  (182) 
=

>  <standard_value>  (182) 
210.0

>  <standard_units>  (182) 
nM

>  <target_pref_name>  (182) 
Serotonin 2b (5-HT2b) receptor

>  <target_chembl_id>  (182) 
CHEMBL1833

>  <target_organism>  (182) 
Homo sapiens

>  <pchembl_median>  (182) 
6.14

$$$$
CHEMBL406957
     RDKit          2D

 14 15  0  0  0  0  0  0  0  0999 V2000
    4.1385    4.6502    0.0000 C   0  0  0  0  0  0  0  0  0  0  0  0
    2.6761    4.9840    0.0000 O   0  0  0  0  0  0  0  0  0  0  0  0
    1.6559    3.8844    0.0000 C   0  0  0  0  0  0  0  0  0  0  0  0
    0.1935    4.2182    0.0000 C   0  0  0  0  0  0  0  0  0  0  0  0
   -0.8268    3.1186    0.0000 C   0  0  0  0  0  0  0  0  0  0  0  0
   -0.3846    1.6852    0.0000 C   0  0  0  0  0  0  0  0  0  0  0  0
    1.0777    1.3515    0.0000 C   0  0  0  0  0  0  0  0  0  0  0  0
    2.0980    2.4510    0.0000 C   0  0  0  0  0  0  0  0  0  0  0  0
    3.5604    2.1172    0.0000 Cl  0  0  0  0  0  0  0  0  0  0  0  0
    1.7286    0.0000    0.0000 C   0  0  0  0  0  0  0  0  0  0  0  0
    1.0777   -1.3515    0.0000 C   0  0  0  0  0  0  0  0  0  0  0  0
   -0.3846   -1.6852    0.0000 N   0  0  0  0  0  0  0  0  0  0  0  0
   -1.5574   -0.7500    0.0000 C   0  0  0  0  0  0  0  0  0  0  0  0
   -1.5574    0.7500    0.0000 C   0  0  0  0  0  0  0  0  0  0  0  0
  1  2  1  0
  2  3  1  0
  3  4  2  0
  4  5  1  0
  5  6  2  0
  6  7  1  0
  7  8  2  0
  8  9  1  0
  7 10  1  0
 10 11  1  0
 11 12  1  0
 12 13  1  0
 13 14  1  0
  8  3  1  0
 14  6  1  0
M  END
>  <assay_chembl_id>  (183) 
CHEMBL936731

>  <assay_description>  (183) 
Displacement of [3H]5-HT from human 5HT2B receptor expressed in HEK293-EBNA cells

>  <parent_molecule_chembl_id>  (183) 
CHEMBL406957

>  <canonical_smiles>  (183) 
COc1ccc2c(c1Cl)CCNCC2

>  <standard_type>  (183) 
Ki

>  <standard_relation>  (183) 
=

>  <standard_value>  (183) 
84.0

>  <standard_units>  (183) 
nM

>  <target_pref_name>  (183) 
Serotonin 2b (5-HT2b) receptor

>  <target_chembl_id>  (183) 
CHEMBL1833

>  <target_organism>  (183) 
Homo sapiens

>  <pchembl_median>  (183) 
6.61

$$$$
CHEMBL259480
     RDKit          2D

 13 14  0  0  0  0  0  0  0  0999 V2000
    3.5604    2.1172    0.0000 Cl  0  0  0  0  0  0  0  0  0  0  0  0
    2.0980    2.4510    0.0000 C   0  0  0  0  0  0  0  0  0  0  0  0
    1.6559    3.8844    0.0000 C   0  0  0  0  0  0  0  0  0  0  0  0
    2.6761    4.9840    0.0000 Br  0  0  0  0  0  0  0  0  0  0  0  0
    0.1935    4.2182    0.0000 C   0  0  0  0  0  0  0  0  0  0  0  0
   -0.8268    3.1186    0.0000 C   0  0  0  0  0  0  0  0  0  0  0  0
   -0.3846    1.6852    0.0000 C   0  0  0  0  0  0  0  0  0  0  0  0
    1.0777    1.3515    0.0000 C   0  0  0  0  0  0  0  0  0  0  0  0
    1.7286    0.0000    0.0000 C   0  0  0  0  0  0  0  0  0  0  0  0
    1.0777   -1.3515    0.0000 C   0  0  0  0  0  0  0  0  0  0  0  0
   -0.3846   -1.6852    0.0000 N   0  0  0  0  0  0  0  0  0  0  0  0
   -1.5574   -0.7500    0.0000 C   0  0  0  0  0  0  0  0  0  0  0  0
   -1.5574    0.7500    0.0000 C   0  0  0  0  0  0  0  0  0  0  0  0
  1  2  1  0
  2  3  2  0
  3  4  1  0
  3  5  1  0
  5  6  2  0
  6  7  1  0
  7  8  2  0
  8  9  1  0
  9 10  1  0
 10 11  1  0
 11 12  1  0
 12 13  1  0
  8  2  1  0
 13  7  1  0
M  END
>  <assay_chembl_id>  (184) 
CHEMBL936731

>  <assay_description>  (184) 
Displacement of [3H]5-HT from human 5HT2B receptor expressed in HEK293-EBNA cells

>  <parent_molecule_chembl_id>  (184) 
CHEMBL259480

>  <canonical_smiles>  (184) 
Clc1c(Br)ccc2c1CCNCC2

>  <standard_type>  (184) 
Ki

>  <standard_relation>  (184) 
=

>  <standard_value>  (184) 
25.0

>  <standard_units>  (184) 
nM

>  <target_pref_name>  (184) 
Serotonin 2b (5-HT2b) receptor

>  <target_chembl_id>  (184) 
CHEMBL1833

>  <target_organism>  (184) 
Homo sapiens

>  <pchembl_median>  (184) 
6.26

$$$$
CHEMBL262862
     RDKit          2D

 13 14  0  0  0  0  0  0  0  0999 V2000
    2.6761    4.9840    0.0000 Cl  0  0  0  0  0  0  0  0  0  0  0  0
    1.6559    3.8844    0.0000 C   0  0  0  0  0  0  0  0  0  0  0  0
    0.1935    4.2182    0.0000 C   0  0  0  0  0  0  0  0  0  0  0  0
   -0.8268    3.1186    0.0000 C   0  0  0  0  0  0  0  0  0  0  0  0
   -0.3846    1.6852    0.0000 C   0  0  0  0  0  0  0  0  0  0  0  0
    1.0777    1.3515    0.0000 C   0  0  0  0  0  0  0  0  0  0  0  0
    2.0980    2.4510    0.0000 C   0  0  0  0  0  0  0  0  0  0  0  0
    3.5604    2.1172    0.0000 Cl  0  0  0  0  0  0  0  0  0  0  0  0
    1.7286    0.0000    0.0000 C   0  0  0  0  0  0  0  0  0  0  0  0
    1.0777   -1.3515    0.0000 C   0  0  0  0  0  0  0  0  0  0  0  0
   -0.3846   -1.6852    0.0000 N   0  0  0  0  0  0  0  0  0  0  0  0
   -1.5574   -0.7500    0.0000 C   0  0  0  0  0  0  0  0  0  0  0  0
   -1.5574    0.7500    0.0000 C   0  0  0  0  0  0  0  0  0  0  0  0
  1  2  1  0
  2  3  2  0
  3  4  1  0
  4  5  2  0
  5  6  1  0
  6  7  2  0
  7  8  1  0
  6  9  1  0
  9 10  1  0
 10 11  1  0
 11 12  1  0
 12 13  1  0
  7  2  1  0
 13  5  1  0
M  END
>  <assay_chembl_id>  (185) 
CHEMBL936731

>  <assay_description>  (185) 
Displacement of [3H]5-HT from human 5HT2B receptor expressed in HEK293-EBNA cells

>  <parent_molecule_chembl_id>  (185) 
CHEMBL262862

>  <canonical_smiles>  (185) 
Clc1ccc2c(c1Cl)CCNCC2

>  <standard_type>  (185) 
Ki

>  <standard_relation>  (185) 
=

>  <standard_value>  (185) 
100.0

>  <standard_units>  (185) 
nM

>  <target_pref_name>  (185) 
Serotonin 2b (5-HT2b) receptor

>  <target_chembl_id>  (185) 
CHEMBL1833

>  <target_organism>  (185) 
Homo sapiens

>  <pchembl_median>  (185) 
7.75

$$$$
CHEMBL429689
     RDKit          2D

 13 14  0  0  0  0  0  0  0  0999 V2000
    2.6761    4.9840    0.0000 F   0  0  0  0  0  0  0  0  0  0  0  0
    1.6559    3.8844    0.0000 C   0  0  0  0  0  0  0  0  0  0  0  0
    0.1935    4.2182    0.0000 C   0  0  0  0  0  0  0  0  0  0  0  0
   -0.8268    3.1186    0.0000 C   0  0  0  0  0  0  0  0  0  0  0  0
   -0.3846    1.6852    0.0000 C   0  0  0  0  0  0  0  0  0  0  0  0
    1.0777    1.3515    0.0000 C   0  0  0  0  0  0  0  0  0  0  0  0
    2.0980    2.4510    0.0000 C   0  0  0  0  0  0  0  0  0  0  0  0
    3.5604    2.1172    0.0000 Cl  0  0  0  0  0  0  0  0  0  0  0  0
    1.7286    0.0000    0.0000 C   0  0  0  0  0  0  0  0  0  0  0  0
    1.0777   -1.3515    0.0000 C   0  0  0  0  0  0  0  0  0  0  0  0
   -0.3846   -1.6852    0.0000 N   0  0  0  0  0  0  0  0  0  0  0  0
   -1.5574   -0.7500    0.0000 C   0  0  0  0  0  0  0  0  0  0  0  0
   -1.5574    0.7500    0.0000 C   0  0  0  0  0  0  0  0  0  0  0  0
  1  2  1  0
  2  3  2  0
  3  4  1  0
  4  5  2  0
  5  6  1  0
  6  7  2  0
  7  8  1  0
  6  9  1  0
  9 10  1  0
 10 11  1  0
 11 12  1  0
 12 13  1  0
  7  2  1  0
 13  5  1  0
M  END
>  <assay_chembl_id>  (186) 
CHEMBL936731

>  <assay_description>  (186) 
Displacement of [3H]5-HT from human 5HT2B receptor expressed in HEK293-EBNA cells

>  <parent_molecule_chembl_id>  (186) 
CHEMBL429689

>  <canonical_smiles>  (186) 
Fc1ccc2c(c1Cl)CCNCC2

>  <standard_type>  (186) 
Ki

>  <standard_relation>  (186) 
=

>  <standard_value>  (186) 
410.0

>  <standard_units>  (186) 
nM

>  <target_pref_name>  (186) 
Serotonin 2b (5-HT2b) receptor

>  <target_chembl_id>  (186) 
CHEMBL1833

>  <target_organism>  (186) 
Homo sapiens

>  <pchembl_median>  (186) 
5.43

$$$$
CHEMBL406585
     RDKit          2D

 14 15  0  0  0  0  0  0  0  0999 V2000
    3.6964    6.0835    0.0000 N   0  0  0  0  0  0  0  0  0  0  0  0
    2.6761    4.9840    0.0000 C   0  0  0  0  0  0  0  0  0  0  0  0
    1.6559    3.8844    0.0000 C   0  0  0  0  0  0  0  0  0  0  0  0
    0.1935    4.2182    0.0000 C   0  0  0  0  0  0  0  0  0  0  0  0
   -0.8268    3.1186    0.0000 C   0  0  0  0  0  0  0  0  0  0  0  0
   -0.3846    1.6852    0.0000 C   0  0  0  0  0  0  0  0  0  0  0  0
    1.0777    1.3515    0.0000 C   0  0  0  0  0  0  0  0  0  0  0  0
    2.0980    2.4510    0.0000 C   0  0  0  0  0  0  0  0  0  0  0  0
    3.5604    2.1172    0.0000 Cl  0  0  0  0  0  0  0  0  0  0  0  0
    1.7286    0.0000    0.0000 C   0  0  0  0  0  0  0  0  0  0  0  0
    1.0777   -1.3515    0.0000 C   0  0  0  0  0  0  0  0  0  0  0  0
   -0.3846   -1.6852    0.0000 N   0  0  0  0  0  0  0  0  0  0  0  0
   -1.5574   -0.7500    0.0000 C   0  0  0  0  0  0  0  0  0  0  0  0
   -1.5574    0.7500    0.0000 C   0  0  0  0  0  0  0  0  0  0  0  0
  1  2  3  0
  2  3  1  0
  3  4  2  0
  4  5  1  0
  5  6  2  0
  6  7  1  0
  7  8  2  0
  8  9  1  0
  7 10  1  0
 10 11  1  0
 11 12  1  0
 12 13  1  0
 13 14  1  0
  8  3  1  0
 14  6  1  0
M  END
>  <assay_chembl_id>  (187) 
CHEMBL936731

>  <assay_description>  (187) 
Displacement of [3H]5-HT from human 5HT2B receptor expressed in HEK293-EBNA cells

>  <parent_molecule_chembl_id>  (187) 
CHEMBL406585

>  <canonical_smiles>  (187) 
N#Cc1ccc2c(c1Cl)CCNCC2

>  <standard_type>  (187) 
Ki

>  <standard_relation>  (187) 
=

>  <standard_value>  (187) 
65.0

>  <standard_units>  (187) 
nM

>  <target_pref_name>  (187) 
Serotonin 2b (5-HT2b) receptor

>  <target_chembl_id>  (187) 
CHEMBL1833

>  <target_organism>  (187) 
Homo sapiens

>  <pchembl_median>  (187) 
5.46

$$$$
CHEMBL405829
     RDKit          2D

 15 16  0  0  0  0  0  0  0  0999 V2000
    2.2340    6.4173    0.0000 O   0  0  0  0  0  0  0  0  0  0  0  0
    2.6761    4.9840    0.0000 N   0  0  0  0  0  4  0  0  0  0  0  0
    4.1385    4.6502    0.0000 O   0  0  0  0  0  1  0  0  0  0  0  0
    1.6559    3.8844    0.0000 C   0  0  0  0  0  0  0  0  0  0  0  0
    0.1935    4.2182    0.0000 C   0  0  0  0  0  0  0  0  0  0  0  0
   -0.8268    3.1186    0.0000 C   0  0  0  0  0  0  0  0  0  0  0  0
   -0.3846    1.6852    0.0000 C   0  0  0  0  0  0  0  0  0  0  0  0
    1.0777    1.3515    0.0000 C   0  0  0  0  0  0  0  0  0  0  0  0
    2.0980    2.4510    0.0000 C   0  0  0  0  0  0  0  0  0  0  0  0
    3.5604    2.1172    0.0000 Cl  0  0  0  0  0  0  0  0  0  0  0  0
    1.7286    0.0000    0.0000 C   0  0  0  0  0  0  0  0  0  0  0  0
    1.0777   -1.3515    0.0000 C   0  0  0  0  0  0  0  0  0  0  0  0
   -0.3846   -1.6852    0.0000 N   0  0  0  0  0  0  0  0  0  0  0  0
   -1.5574   -0.7500    0.0000 C   0  0  0  0  0  0  0  0  0  0  0  0
   -1.5574    0.7500    0.0000 C   0  0  0  0  0  0  0  0  0  0  0  0
  1  2  2  0
  2  3  1  0
  2  4  1  0
  4  5  2  0
  5  6  1  0
  6  7  2  0
  7  8  1  0
  8  9  2  0
  9 10  1  0
  8 11  1  0
 11 12  1  0
 12 13  1  0
 13 14  1  0
 14 15  1  0
  9  4  1  0
 15  7  1  0
M  CHG  2   2   1   3  -1
M  END
>  <assay_chembl_id>  (188) 
CHEMBL936731

>  <assay_description>  (188) 
Displacement of [3H]5-HT from human 5HT2B receptor expressed in HEK293-EBNA cells

>  <parent_molecule_chembl_id>  (188) 
CHEMBL405829

>  <canonical_smiles>  (188) 
O=[N+]([O-])c1ccc2c(c1Cl)CCNCC2

>  <standard_type>  (188) 
Ki

>  <standard_relation>  (188) 
=

>  <standard_value>  (188) 
300.0

>  <standard_units>  (188) 
nM

>  <target_pref_name>  (188) 
Serotonin 2b (5-HT2b) receptor

>  <target_chembl_id>  (188) 
CHEMBL1833

>  <target_organism>  (188) 
Homo sapiens

>  <pchembl_median>  (188) 
5.8

$$$$
CHEMBL407636
     RDKit          2D

 16 17  0  0  0  0  0  0  0  0999 V2000
    3.2286    0.0000    0.0000 C   0  0  0  0  0  0  0  0  0  0  0  0
    1.7286    0.0000    0.0000 N   0  0  0  0  0  0  0  0  0  0  0  0
    1.0777    1.3515    0.0000 C   0  0  0  0  0  0  0  0  0  0  0  0
   -0.3846    1.6852    0.0000 C   0  0  0  0  0  0  0  0  0  0  0  0
   -1.5574    0.7500    0.0000 C   0  0  0  0  0  0  0  0  0  0  0  0
   -2.8564    1.5000    0.0000 C   0  0  0  0  0  0  0  0  0  0  0  0
   -4.1555    0.7500    0.0000 C   0  0  0  0  0  0  0  0  0  0  0  0
   -4.1555   -0.7500    0.0000 C   0  0  0  0  0  0  0  0  0  0  0  0
   -5.4545   -1.5000    0.0000 N   0  0  0  0  0  4  0  0  0  0  0  0
   -5.4545   -3.0000    0.0000 O   0  0  0  0  0  0  0  0  0  0  0  0
   -6.7535   -0.7500    0.0000 O   0  0  0  0  0  1  0  0  0  0  0  0
   -2.8564   -1.5000    0.0000 C   0  0  0  0  0  0  0  0  0  0  0  0
   -2.8564   -3.0000    0.0000 Cl  0  0  0  0  0  0  0  0  0  0  0  0
   -1.5574   -0.7500    0.0000 C   0  0  0  0  0  0  0  0  0  0  0  0
   -0.3846   -1.6852    0.0000 C   0  0  0  0  0  0  0  0  0  0  0  0
    1.0777   -1.3515    0.0000 C   0  0  0  0  0  0  0  0  0  0  0  0
  1  2  1  0
  2  3  1  0
  3  4  1  0
  4  5  1  0
  5  6  2  0
  6  7  1  0
  7  8  2  0
  8  9  1  0
  9 10  2  0
  9 11  1  0
  8 12  1  0
 12 13  1  0
 12 14  2  0
 14 15  1  0
 15 16  1  0
 16  2  1  0
 14  5  1  0
M  CHG  2   9   1  11  -1
M  END
>  <assay_chembl_id>  (189) 
CHEMBL936731

>  <assay_description>  (189) 
Displacement of [3H]5-HT from human 5HT2B receptor expressed in HEK293-EBNA cells

>  <parent_molecule_chembl_id>  (189) 
CHEMBL407636

>  <canonical_smiles>  (189) 
CN1CCc2ccc([N+](=O)[O-])c(Cl)c2CC1

>  <standard_type>  (189) 
Ki

>  <standard_relation>  (189) 
=

>  <standard_value>  (189) 
1000.0

>  <standard_units>  (189) 
nM

>  <target_pref_name>  (189) 
Serotonin 2b (5-HT2b) receptor

>  <target_chembl_id>  (189) 
CHEMBL1833

>  <target_organism>  (189) 
Homo sapiens

>  <pchembl_median>  (189) 
6.51

$$$$
CHEMBL451232
     RDKit          2D

 14 14  0  0  0  0  0  0  0  0999 V2000
    3.7990    0.0000    0.0000 Cl  0  0  0  0  0  0  0  0  0  0  0  0
    1.5000   -6.6962    0.0000 N   0  0  0  0  0  0  0  0  0  0  0  0
    0.7500   -5.3971    0.0000 C   0  0  0  0  0  0  0  0  0  0  0  0
    1.5000   -4.0981    0.0000 C   0  0  0  0  0  0  0  0  0  0  0  0
    2.7990   -3.3481    0.0000 C   0  0  0  0  0  0  0  0  0  0  0  0
    1.5000   -2.5981    0.0000 C   0  0  0  0  0  0  0  0  0  0  0  0
    0.7500   -1.2990    0.0000 C   0  0  0  0  0  0  0  0  0  0  0  0
    1.5000    0.0000    0.0000 C   0  0  0  0  0  0  0  0  0  0  0  0
    0.7500    1.2990    0.0000 C   0  0  0  0  0  0  0  0  0  0  0  0
   -0.7500    1.2990    0.0000 C   0  0  0  0  0  0  0  0  0  0  0  0
   -1.5000    2.5981    0.0000 F   0  0  0  0  0  0  0  0  0  0  0  0
   -1.5000    0.0000    0.0000 C   0  0  0  0  0  0  0  0  0  0  0  0
   -0.7500   -1.2990    0.0000 C   0  0  0  0  0  0  0  0  0  0  0  0
   -1.5000   -2.5981    0.0000 Cl  0  0  0  0  0  0  0  0  0  0  0  0
  2  3  1  0
  4  3  1  6
  4  5  1  0
  5  6  1  0
  6  7  1  1
  7  8  2  0
  8  9  1  0
  9 10  2  0
 10 11  1  0
 10 12  1  0
 12 13  2  0
 13 14  1  0
  6  4  1  0
 13  7  1  0
M  END
>  <assay_chembl_id>  (190) 
CHEMBL958365

>  <assay_description>  (190) 
Displacement of [3H]LSD from human 5HT2B receptor

>  <parent_molecule_chembl_id>  (190) 
CHEMBL1186133

>  <canonical_smiles>  (190) 
Cl.NC[C@H]1C[C@@H]1c1ccc(F)cc1Cl

>  <standard_type>  (190) 
Ki

>  <standard_relation>  (190) 
=

>  <standard_value>  (190) 
16.0

>  <standard_units>  (190) 
nM

>  <target_pref_name>  (190) 
Serotonin 2b (5-HT2b) receptor

>  <target_chembl_id>  (190) 
CHEMBL1833

>  <target_organism>  (190) 
Homo sapiens

>  <pchembl_median>  (190) 
6.1

$$$$
CHEMBL467736
     RDKit          2D

 13 13  0  0  0  0  0  0  0  0999 V2000
    3.7990    0.0000    0.0000 Cl  0  0  0  0  0  0  0  0  0  0  0  0
    1.5000   -6.6962    0.0000 N   0  0  0  0  0  0  0  0  0  0  0  0
    0.7500   -5.3971    0.0000 C   0  0  0  0  0  0  0  0  0  0  0  0
    1.5000   -4.0981    0.0000 C   0  0  0  0  0  0  0  0  0  0  0  0
    2.7990   -3.3481    0.0000 C   0  0  0  0  0  0  0  0  0  0  0  0
    1.5000   -2.5981    0.0000 C   0  0  0  0  0  0  0  0  0  0  0  0
    0.7500   -1.2990    0.0000 C   0  0  0  0  0  0  0  0  0  0  0  0
    1.5000    0.0000    0.0000 C   0  0  0  0  0  0  0  0  0  0  0  0
    0.7500    1.2990    0.0000 C   0  0  0  0  0  0  0  0  0  0  0  0
   -0.7500    1.2990    0.0000 C   0  0  0  0  0  0  0  0  0  0  0  0
   -1.5000    0.0000    0.0000 C   0  0  0  0  0  0  0  0  0  0  0  0
   -0.7500   -1.2990    0.0000 C   0  0  0  0  0  0  0  0  0  0  0  0
   -1.5000   -2.5981    0.0000 Br  0  0  0  0  0  0  0  0  0  0  0  0
  2  3  1  0
  4  3  1  6
  4  5  1  0
  5  6  1  0
  6  7  1  1
  7  8  2  0
  8  9  1  0
  9 10  2  0
 10 11  1  0
 11 12  2  0
 12 13  1  0
  6  4  1  0
 12  7  1  0
M  END
>  <assay_chembl_id>  (191) 
CHEMBL958365

>  <assay_description>  (191) 
Displacement of [3H]LSD from human 5HT2B receptor

>  <parent_molecule_chembl_id>  (191) 
CHEMBL1186509

>  <canonical_smiles>  (191) 
Cl.NC[C@H]1C[C@@H]1c1ccccc1Br

>  <standard_type>  (191) 
Ki

>  <standard_relation>  (191) 
=

>  <standard_value>  (191) 
16.0

>  <standard_units>  (191) 
nM

>  <target_pref_name>  (191) 
Serotonin 2b (5-HT2b) receptor

>  <target_chembl_id>  (191) 
CHEMBL1833

>  <target_organism>  (191) 
Homo sapiens

>  <pchembl_median>  (191) 
6.7

$$$$
CHEMBL492916
     RDKit          2D

 13 13  0  0  0  0  0  0  0  0999 V2000
    3.7990    0.0000    0.0000 Cl  0  0  0  0  0  0  0  0  0  0  0  0
    1.5000   -6.6962    0.0000 N   0  0  0  0  0  0  0  0  0  0  0  0
    0.7500   -5.3971    0.0000 C   0  0  0  0  0  0  0  0  0  0  0  0
    1.5000   -4.0981    0.0000 C   0  0  0  0  0  0  0  0  0  0  0  0
    2.7990   -3.3481    0.0000 C   0  0  0  0  0  0  0  0  0  0  0  0
    1.5000   -2.5981    0.0000 C   0  0  0  0  0  0  0  0  0  0  0  0
    0.7500   -1.2990    0.0000 C   0  0  0  0  0  0  0  0  0  0  0  0
    1.5000    0.0000    0.0000 C   0  0  0  0  0  0  0  0  0  0  0  0
    0.7500    1.2990    0.0000 C   0  0  0  0  0  0  0  0  0  0  0  0
   -0.7500    1.2990    0.0000 C   0  0  0  0  0  0  0  0  0  0  0  0
   -1.5000    0.0000    0.0000 C   0  0  0  0  0  0  0  0  0  0  0  0
   -0.7500   -1.2990    0.0000 C   0  0  0  0  0  0  0  0  0  0  0  0
   -1.5000   -2.5981    0.0000 Br  0  0  0  0  0  0  0  0  0  0  0  0
  2  3  1  0
  3  4  1  0
  4  5  1  0
  5  6  1  0
  6  7  1  0
  7  8  2  0
  8  9  1  0
  9 10  2  0
 10 11  1  0
 11 12  2  0
 12 13  1  0
  6  4  1  0
 12  7  1  0
M  END
>  <assay_chembl_id>  (192) 
CHEMBL958365

>  <assay_description>  (192) 
Displacement of [3H]LSD from human 5HT2B receptor

>  <parent_molecule_chembl_id>  (192) 
CHEMBL1187185

>  <canonical_smiles>  (192) 
Cl.NCC1CC1c1ccccc1Br

>  <standard_type>  (192) 
Ki

>  <standard_relation>  (192) 
=

>  <standard_value>  (192) 
22.0

>  <standard_units>  (192) 
nM

>  <target_pref_name>  (192) 
Serotonin 2b (5-HT2b) receptor

>  <target_chembl_id>  (192) 
CHEMBL1833

>  <target_organism>  (192) 
Homo sapiens

>  <pchembl_median>  (192) 
7.4

$$$$
CHEMBL445747
     RDKit          2D

 13 13  0  0  0  0  0  0  0  0999 V2000
    3.0000    0.0000    0.0000 C   0  0  0  0  0  0  0  0  0  0  0  0
    1.5000    0.0000    0.0000 C   0  0  0  0  0  0  0  0  0  0  0  0
    0.7500   -1.2990    0.0000 C   0  0  0  0  0  0  0  0  0  0  0  0
   -0.7500   -1.2990    0.0000 C   0  0  0  0  0  0  0  0  0  0  0  0
   -1.5000    0.0000    0.0000 C   0  0  0  0  0  0  0  0  0  0  0  0
   -0.7500    1.2990    0.0000 C   0  0  0  0  0  0  0  0  0  0  0  0
   -1.5000    2.5981    0.0000 C   0  0  0  0  0  0  0  0  0  0  0  0
   -2.7990    3.3481    0.0000 C   0  0  0  0  0  0  0  0  0  0  0  0
   -1.5000    4.0981    0.0000 C   0  0  0  0  0  0  0  0  0  0  0  0
   -0.7500    5.3971    0.0000 C   0  0  0  0  0  0  0  0  0  0  0  0
    0.7500    5.3971    0.0000 N   0  0  0  0  0  0  0  0  0  0  0  0
    0.7500    1.2990    0.0000 C   0  0  0  0  0  0  0  0  0  0  0  0
    4.0000    0.0000    0.0000 Cl  0  0  0  0  0  0  0  0  0  0  0  0
  1  2  1  0
  2  3  2  0
  3  4  1  0
  4  5  2  0
  5  6  1  0
  7  6  1  1
  7  8  1  0
  8  9  1  0
  9 10  1  6
 10 11  1  0
  6 12  2  0
 12  2  1  0
  9  7  1  0
M  END
>  <assay_chembl_id>  (193) 
CHEMBL958365

>  <assay_description>  (193) 
Displacement of [3H]LSD from human 5HT2B receptor

>  <parent_molecule_chembl_id>  (193) 
CHEMBL1186019

>  <canonical_smiles>  (193) 
Cc1cccc([C@H]2C[C@@H]2CN)c1.Cl

>  <standard_type>  (193) 
Ki

>  <standard_relation>  (193) 
=

>  <standard_value>  (193) 
85.0

>  <standard_units>  (193) 
nM

>  <target_pref_name>  (193) 
Serotonin 2b (5-HT2b) receptor

>  <target_chembl_id>  (193) 
CHEMBL1833

>  <target_organism>  (193) 
Homo sapiens

>  <pchembl_median>  (193) 
6.6

$$$$
CHEMBL493130
     RDKit          2D

 13 13  0  0  0  0  0  0  0  0999 V2000
    3.7990    0.0000    0.0000 Cl  0  0  0  0  0  0  0  0  0  0  0  0
   -0.7500   -5.3971    0.0000 N   0  0  0  0  0  0  0  0  0  0  0  0
    0.7500   -5.3971    0.0000 C   0  0  0  0  0  0  0  0  0  0  0  0
    1.5000   -4.0981    0.0000 C   0  0  0  0  0  0  0  0  0  0  0  0
    2.7990   -3.3481    0.0000 C   0  0  0  0  0  0  0  0  0  0  0  0
    1.5000   -2.5981    0.0000 C   0  0  0  0  0  0  0  0  0  0  0  0
    0.7500   -1.2990    0.0000 C   0  0  0  0  0  0  0  0  0  0  0  0
    1.5000    0.0000    0.0000 C   0  0  0  0  0  0  0  0  0  0  0  0
    0.7500    1.2990    0.0000 C   0  0  0  0  0  0  0  0  0  0  0  0
   -0.7500    1.2990    0.0000 C   0  0  0  0  0  0  0  0  0  0  0  0
   -1.5000    2.5981    0.0000 F   0  0  0  0  0  0  0  0  0  0  0  0
   -1.5000    0.0000    0.0000 C   0  0  0  0  0  0  0  0  0  0  0  0
   -0.7500   -1.2990    0.0000 C   0  0  0  0  0  0  0  0  0  0  0  0
  2  3  1  0
  4  3  1  6
  4  5  1  0
  5  6  1  0
  6  7  1  1
  7  8  2  0
  8  9  1  0
  9 10  2  0
 10 11  1  0
 10 12  1  0
 12 13  2  0
  6  4  1  0
 13  7  1  0
M  END
>  <assay_chembl_id>  (194) 
CHEMBL958365

>  <assay_description>  (194) 
Displacement of [3H]LSD from human 5HT2B receptor

>  <parent_molecule_chembl_id>  (194) 
CHEMBL1187196

>  <canonical_smiles>  (194) 
Cl.NC[C@H]1C[C@@H]1c1ccc(F)cc1

>  <standard_type>  (194) 
Ki

>  <standard_relation>  (194) 
=

>  <standard_value>  (194) 
89.0

>  <standard_units>  (194) 
nM

>  <target_pref_name>  (194) 
Serotonin 2b (5-HT2b) receptor

>  <target_chembl_id>  (194) 
CHEMBL1833

>  <target_organism>  (194) 
Homo sapiens

>  <pchembl_median>  (194) 
7.2

$$$$
CHEMBL497963
     RDKit          2D

 32 35  0  0  0  0  0  0  0  0999 V2000
    3.0000    0.0000    0.0000 C   0  0  0  0  0  0  0  0  0  0  0  0
    1.5000    0.0000    0.0000 C   0  0  0  0  0  0  0  0  0  0  0  0
    0.7500   -1.2990    0.0000 C   0  0  0  0  0  0  0  0  0  0  0  0
   -0.7500   -1.2990    0.0000 C   0  0  0  0  0  0  0  0  0  0  0  0
   -1.5000    0.0000    0.0000 C   0  0  0  0  0  0  0  0  0  0  0  0
   -3.0000    0.0000    0.0000 C   0  0  0  0  0  0  0  0  0  0  0  0
   -3.7500   -1.2990    0.0000 O   0  0  0  0  0  0  0  0  0  0  0  0
   -5.2500   -1.2990    0.0000 C   0  0  0  0  0  0  0  0  0  0  0  0
   -6.0000   -2.5981    0.0000 C   0  0  0  0  0  0  0  0  0  0  0  0
   -7.5000   -2.5981    0.0000 N   0  0  0  0  0  0  0  0  0  0  0  0
   -8.2500   -1.2990    0.0000 C   0  0  0  0  0  0  0  0  0  0  0  0
   -9.7500   -1.2990    0.0000 C   0  0  0  0  0  0  0  0  0  0  0  0
  -10.5000   -2.5981    0.0000 C   0  0  0  0  0  0  0  0  0  0  0  0
  -12.0000   -2.5981    0.0000 C   0  0  0  0  0  0  0  0  0  0  0  0
  -12.7500   -1.2990    0.0000 C   0  0  0  0  0  0  0  0  0  0  0  0
  -12.0000    0.0000    0.0000 C   0  0  0  0  0  0  0  0  0  0  0  0
  -12.7500    1.2990    0.0000 C   0  0  0  0  0  0  0  0  0  0  0  0
  -14.2500    1.2990    0.0000 C   0  0  0  0  0  0  0  0  0  0  0  0
  -15.0000    0.0000    0.0000 C   0  0  0  0  0  0  0  0  0  0  0  0
  -16.5000    0.0000    0.0000 N   0  0  0  0  0  0  0  0  0  0  0  0
  -17.2500    1.2990    0.0000 S   0  0  0  0  0  0  0  0  0  0  0  0
  -18.0000    2.5981    0.0000 C   0  0  0  0  0  0  0  0  0  0  0  0
  -15.9510    2.0490    0.0000 O   0  0  0  0  0  0  0  0  0  0  0  0
  -18.5490    0.5490    0.0000 O   0  0  0  0  0  0  0  0  0  0  0  0
  -14.2500   -1.2990    0.0000 C   0  0  0  0  0  0  0  0  0  0  0  0
   -9.7500   -3.8971    0.0000 C   0  0  0  0  0  0  0  0  0  0  0  0
   -8.2500   -3.8971    0.0000 C   0  0  0  0  0  0  0  0  0  0  0  0
   -3.7500    1.2990    0.0000 C   0  0  0  0  0  0  0  0  0  0  0  0
   -3.0000    2.5981    0.0000 C   0  0  0  0  0  0  0  0  0  0  0  0
   -1.5000    2.5981    0.0000 C   0  0  0  0  0  0  0  0  0  0  0  0
   -0.7500    1.2990    0.0000 C   0  0  0  0  0  0  0  0  0  0  0  0
    0.7500    1.2990    0.0000 N   0  0  0  0  0  0  0  0  0  0  0  0
  1  2  1  0
  2  3  2  0
  3  4  1  0
  4  5  2  0
  5  6  1  0
  6  7  1  0
  7  8  1  0
  8  9  1  0
  9 10  1  0
 10 11  1  0
 11 12  1  0
 12 13  1  0
 13 14  1  0
 14 15  1  0
 15 16  2  0
 16 17  1  0
 17 18  2  0
 18 19  1  0
 19 20  1  0
 20 21  1  0
 21 22  1  0
 21 23  2  0
 21 24  2  0
 19 25  2  0
 13 26  1  0
 26 27  1  0
  6 28  2  0
 28 29  1  0
 29 30  2  0
 30 31  1  0
 31 32  2  0
 32  2  1  0
 31  5  1  0
 27 10  1  0
 25 15  1  0
M  END
>  <assay_chembl_id>  (195) 
CHEMBL954054

>  <assay_description>  (195) 
Displacement of radioligand from human cloned 5HT2B receptor

>  <parent_molecule_chembl_id>  (195) 
CHEMBL497963

>  <canonical_smiles>  (195) 
Cc1ccc2c(OCCN3CCC(Cc4cccc(NS(C)(=O)=O)c4)CC3)cccc2n1

>  <standard_type>  (195) 
Ki

>  <standard_relation>  (195) 
=

>  <standard_value>  (195) 
1995.26

>  <standard_units>  (195) 
nM

>  <target_pref_name>  (195) 
Serotonin 2b (5-HT2b) receptor

>  <target_chembl_id>  (195) 
CHEMBL1833

>  <target_organism>  (195) 
Homo sapiens

>  <pchembl_median>  (195) 
8.15

$$$$
CHEMBL6616
     RDKit          2D

 15 15  0  0  0  0  0  0  0  0999 V2000
    3.7500   -1.2990    0.0000 C   0  0  0  0  0  0  0  0  0  0  0  0
    3.0000    0.0000    0.0000 O   0  0  0  0  0  0  0  0  0  0  0  0
    1.5000    0.0000    0.0000 C   0  0  0  0  0  0  0  0  0  0  0  0
    0.7500   -1.2990    0.0000 C   0  0  0  0  0  0  0  0  0  0  0  0
   -0.7500   -1.2990    0.0000 C   0  0  0  0  0  0  0  0  0  0  0  0
   -1.5000   -2.5981    0.0000 C   0  0  0  0  0  0  0  0  0  0  0  0
   -3.0000   -2.5981    0.0000 C   0  0  0  0  0  0  0  0  0  0  0  0
   -3.7500   -3.8971    0.0000 C   0  0  0  0  0  0  0  0  0  0  0  0
   -3.7500   -1.2990    0.0000 N   0  0  0  0  0  0  0  0  0  0  0  0
   -1.5000    0.0000    0.0000 C   0  0  0  0  0  0  0  0  0  0  0  0
   -3.0000    0.0000    0.0000 O   0  0  0  0  0  0  0  0  0  0  0  0
   -3.7500    1.2990    0.0000 C   0  0  0  0  0  0  0  0  0  0  0  0
   -0.7500    1.2990    0.0000 C   0  0  0  0  0  0  0  0  0  0  0  0
    0.7500    1.2990    0.0000 C   0  0  0  0  0  0  0  0  0  0  0  0
    1.5000    2.5981    0.0000 I   0  0  0  0  0  0  0  0  0  0  0  0
  1  2  1  0
  2  3  1  0
  3  4  2  0
  4  5  1  0
  5  6  1  0
  6  7  1  0
  7  8  1  0
  7  9  1  0
  5 10  2  0
 10 11  1  0
 11 12  1  0
 10 13  1  0
 13 14  2  0
 14 15  1  0
 14  3  1  0
M  END
>  <assay_chembl_id>  (196) 
CHEMBL947382

>  <assay_description>  (196) 
Displacement of radiolabeled DOI from human 5HT2B receptor agonist site

>  <parent_molecule_chembl_id>  (196) 
CHEMBL6616

>  <canonical_smiles>  (196) 
COc1cc(CC(C)N)c(OC)cc1I

>  <standard_type>  (196) 
Ki

>  <standard_relation>  (196) 
=

>  <standard_value>  (196) 
3.5

>  <standard_units>  (196) 
nM

>  <target_pref_name>  (196) 
Serotonin 2b (5-HT2b) receptor

>  <target_chembl_id>  (196) 
CHEMBL1833

>  <target_organism>  (196) 
Homo sapiens

>  <pchembl_median>  (196) 
9.0

$$$$
CHEMBL594717
     RDKit          2D

 26 29  0  0  0  0  0  0  0  0999 V2000
   -3.5757   -7.5908    0.0000 C   0  0  0  0  0  0  0  0  0  0  0  0
   -4.6904   -6.5871    0.0000 C   0  0  0  0  0  0  0  0  0  0  0  0
   -6.1170   -7.0506    0.0000 C   0  0  0  0  0  0  0  0  0  0  0  0
   -7.2317   -6.0469    0.0000 C   0  0  0  0  0  0  0  0  0  0  0  0
   -6.9199   -4.5797    0.0000 C   0  0  0  0  0  0  0  0  0  0  0  0
   -8.0346   -3.5760    0.0000 F   0  0  0  0  0  0  0  0  0  0  0  0
   -5.4933   -4.1162    0.0000 C   0  0  0  0  0  0  0  0  0  0  0  0
   -4.3786   -5.1199    0.0000 C   0  0  0  0  0  0  0  0  0  0  0  0
   -2.9520   -4.6564    0.0000 C   0  0  0  0  0  0  0  0  0  0  0  0
   -2.6401   -3.1891    0.0000 O   0  0  0  0  0  0  0  0  0  0  0  0
   -1.2135   -2.7256    0.0000 C   0  0  0  0  0  0  0  0  0  0  0  0
    0.0000   -3.6073    0.0000 C   0  0  0  0  0  0  0  0  0  0  0  0
    1.2135   -2.7256    0.0000 C   0  0  0  0  0  0  0  0  0  0  0  0
    0.7500   -1.2990    0.0000 C   0  0  0  0  0  0  0  0  0  0  0  0
    1.5000    0.0000    0.0000 C   0  0  0  0  0  0  0  0  0  0  0  0
    0.7500    1.2990    0.0000 C   0  0  0  0  0  0  0  0  0  0  0  0
   -0.7500    1.2990    0.0000 C   0  0  0  0  0  0  0  0  0  0  0  0
   -1.5000    2.5981    0.0000 N   0  0  0  0  0  0  0  0  0  0  0  0
   -0.7500    3.8971    0.0000 C   0  0  0  0  0  0  0  0  0  0  0  0
   -1.5000    5.1962    0.0000 C   0  0  0  0  0  0  0  0  0  0  0  0
   -3.0000    5.1962    0.0000 N   0  0  0  0  0  0  0  0  0  0  0  0
   -3.7500    3.8971    0.0000 C   0  0  0  0  0  0  0  0  0  0  0  0
   -3.0000    2.5981    0.0000 C   0  0  0  0  0  0  0  0  0  0  0  0
   -3.7500    1.2990    0.0000 C   0  0  0  0  0  0  0  0  0  0  0  0
   -1.5000    0.0000    0.0000 N   0  0  0  0  0  0  0  0  0  0  0  0
   -0.7500   -1.2990    0.0000 C   0  0  0  0  0  0  0  0  0  0  0  0
  1  2  1  0
  2  3  2  0
  3  4  1  0
  4  5  2  0
  5  6  1  0
  5  7  1  0
  7  8  2  0
  8  9  1  0
  9 10  1  0
 11 10  1  6
 11 12  1  0
 12 13  1  0
 13 14  1  0
 14 15  2  0
 15 16  1  0
 16 17  2  0
 17 18  1  0
 18 19  1  0
 19 20  1  0
 20 21  1  0
 21 22  1  0
 22 23  1  0
 23 24  1  6
 17 25  1  0
 25 26  2  0
  8  2  1  0
 26 11  1  0
 26 14  1  0
 23 18  1  0
M  END
>  <assay_chembl_id>  (197) 
CHEMBL1069955

>  <assay_description>  (197) 
Displacement of [125I]DOI from human 5HT2B receptor expressed in CHO cells

>  <parent_molecule_chembl_id>  (197) 
CHEMBL594717

>  <canonical_smiles>  (197) 
Cc1ccc(F)cc1CO[C@H]1CCc2ccc(N3CCNC[C@H]3C)nc21

>  <standard_type>  (197) 
Ki

>  <standard_relation>  (197) 
=

>  <standard_value>  (197) 
7.7

>  <standard_units>  (197) 
nM

>  <target_pref_name>  (197) 
Serotonin 2b (5-HT2b) receptor

>  <target_chembl_id>  (197) 
CHEMBL1833

>  <target_organism>  (197) 
Homo sapiens

>  <pchembl_median>  (197) 
6.7

$$$$
CHEMBL594469
     RDKit          2D

 25 28  0  0  0  0  0  0  0  0999 V2000
   -6.4289   -8.5179    0.0000 F   0  0  0  0  0  0  0  0  0  0  0  0
   -6.1170   -7.0506    0.0000 C   0  0  0  0  0  0  0  0  0  0  0  0
   -7.2317   -6.0469    0.0000 C   0  0  0  0  0  0  0  0  0  0  0  0
   -6.9199   -4.5797    0.0000 C   0  0  0  0  0  0  0  0  0  0  0  0
   -5.4933   -4.1162    0.0000 C   0  0  0  0  0  0  0  0  0  0  0  0
   -5.1814   -2.6490    0.0000 F   0  0  0  0  0  0  0  0  0  0  0  0
   -4.3786   -5.1199    0.0000 C   0  0  0  0  0  0  0  0  0  0  0  0
   -2.9520   -4.6564    0.0000 C   0  0  0  0  0  0  0  0  0  0  0  0
   -2.6401   -3.1891    0.0000 O   0  0  0  0  0  0  0  0  0  0  0  0
   -1.2135   -2.7256    0.0000 C   0  0  0  0  0  0  0  0  0  0  0  0
    0.0000   -3.6073    0.0000 C   0  0  0  0  0  0  0  0  0  0  0  0
    1.2135   -2.7256    0.0000 C   0  0  0  0  0  0  0  0  0  0  0  0
    0.7500   -1.2990    0.0000 C   0  0  0  0  0  0  0  0  0  0  0  0
    1.5000    0.0000    0.0000 C   0  0  0  0  0  0  0  0  0  0  0  0
    0.7500    1.2990    0.0000 C   0  0  0  0  0  0  0  0  0  0  0  0
   -0.7500    1.2990    0.0000 C   0  0  0  0  0  0  0  0  0  0  0  0
   -1.5000    2.5981    0.0000 N   0  0  0  0  0  0  0  0  0  0  0  0
   -0.7500    3.8971    0.0000 C   0  0  0  0  0  0  0  0  0  0  0  0
   -1.5000    5.1962    0.0000 C   0  0  0  0  0  0  0  0  0  0  0  0
   -3.0000    5.1962    0.0000 N   0  0  0  0  0  0  0  0  0  0  0  0
   -3.7500    3.8971    0.0000 C   0  0  0  0  0  0  0  0  0  0  0  0
   -3.0000    2.5981    0.0000 C   0  0  0  0  0  0  0  0  0  0  0  0
   -1.5000    0.0000    0.0000 N   0  0  0  0  0  0  0  0  0  0  0  0
   -0.7500   -1.2990    0.0000 C   0  0  0  0  0  0  0  0  0  0  0  0
   -4.6904   -6.5871    0.0000 C   0  0  0  0  0  0  0  0  0  0  0  0
  1  2  1  0
  2  3  2  0
  3  4  1  0
  4  5  2  0
  5  6  1  0
  5  7  1  0
  7  8  1  0
  8  9  1  0
 10  9  1  6
 10 11  1  0
 11 12  1  0
 12 13  1  0
 13 14  2  0
 14 15  1  0
 15 16  2  0
 16 17  1  0
 17 18  1  0
 18 19  1  0
 19 20  1  0
 20 21  1  0
 21 22  1  0
 16 23  1  0
 23 24  2  0
  7 25  2  0
 25  2  1  0
 24 10  1  0
 24 13  1  0
 22 17  1  0
M  END
>  <assay_chembl_id>  (198) 
CHEMBL1069955

>  <assay_description>  (198) 
Displacement of [125I]DOI from human 5HT2B receptor expressed in CHO cells

>  <parent_molecule_chembl_id>  (198) 
CHEMBL594469

>  <canonical_smiles>  (198) 
Fc1ccc(F)c(CO[C@H]2CCc3ccc(N4CCNCC4)nc32)c1

>  <standard_type>  (198) 
Ki

>  <standard_relation>  (198) 
=

>  <standard_value>  (198) 
153.0

>  <standard_units>  (198) 
nM

>  <target_pref_name>  (198) 
Serotonin 2b (5-HT2b) receptor

>  <target_chembl_id>  (198) 
CHEMBL1833

>  <target_organism>  (198) 
Homo sapiens

>  <pchembl_median>  (198) 
7.0

$$$$
CHEMBL595645
     RDKit          2D

 26 29  0  0  0  0  0  0  0  0999 V2000
    3.7500   -1.2990    0.0000 C   0  0  0  0  0  0  0  0  0  0  0  0
    3.0000   -2.5981    0.0000 C   0  0  0  0  0  0  0  0  0  0  0  0
    3.7500   -3.8971    0.0000 C   0  0  0  0  0  0  0  0  0  0  0  0
    3.0000   -5.1962    0.0000 N   0  0  0  0  0  0  0  0  0  0  0  0
    1.5000   -5.1962    0.0000 C   0  0  0  0  0  0  0  0  0  0  0  0
    0.7500   -3.8971    0.0000 C   0  0  0  0  0  0  0  0  0  0  0  0
    1.5000   -2.5981    0.0000 N   0  0  0  0  0  0  0  0  0  0  0  0
    0.7500   -1.2990    0.0000 C   0  0  0  0  0  0  0  0  0  0  0  0
    1.5000    0.0000    0.0000 C   0  0  0  0  0  0  0  0  0  0  0  0
    0.7500    1.2990    0.0000 C   0  0  0  0  0  0  0  0  0  0  0  0
   -0.7500    1.2990    0.0000 C   0  0  0  0  0  0  0  0  0  0  0  0
   -1.5000    0.0000    0.0000 C   0  0  0  0  0  0  0  0  0  0  0  0
   -0.7500   -1.2990    0.0000 N   0  0  0  0  0  0  0  0  0  0  0  0
   -2.9672    0.3119    0.0000 C   0  0  0  0  0  0  0  0  0  0  0  0
   -4.0819   -0.6918    0.0000 O   0  0  0  0  0  0  0  0  0  0  0  0
   -5.5085   -0.2283    0.0000 C   0  0  0  0  0  0  0  0  0  0  0  0
   -6.6232   -1.2320    0.0000 C   0  0  0  0  0  0  0  0  0  0  0  0
   -8.0498   -0.7685    0.0000 C   0  0  0  0  0  0  0  0  0  0  0  0
   -9.1645   -1.7722    0.0000 C   0  0  0  0  0  0  0  0  0  0  0  0
  -10.5911   -1.3086    0.0000 F   0  0  0  0  0  0  0  0  0  0  0  0
   -8.8527   -3.2394    0.0000 C   0  0  0  0  0  0  0  0  0  0  0  0
   -7.4261   -3.7029    0.0000 C   0  0  0  0  0  0  0  0  0  0  0  0
   -6.3114   -2.6992    0.0000 C   0  0  0  0  0  0  0  0  0  0  0  0
   -4.8848   -3.1627    0.0000 F   0  0  0  0  0  0  0  0  0  0  0  0
   -3.1240    1.8037    0.0000 C   0  0  0  0  0  0  0  0  0  0  0  0
   -1.7537    2.4138    0.0000 C   0  0  0  0  0  0  0  0  0  0  0  0
  2  1  1  6
  2  3  1  0
  3  4  1  0
  4  5  1  0
  5  6  1  0
  6  7  1  0
  7  8  1  0
  8  9  2  0
  9 10  1  0
 10 11  2  0
 11 12  1  0
 12 13  2  0
 12 14  1  0
 14 15  1  1
 15 16  1  0
 16 17  1  0
 17 18  2  0
 18 19  1  0
 19 20  1  0
 19 21  2  0
 21 22  1  0
 22 23  2  0
 23 24  1  0
 14 25  1  0
 25 26  1  0
  7  2  1  0
 13  8  1  0
 23 17  1  0
 26 11  1  0
M  END
>  <assay_chembl_id>  (199) 
CHEMBL1069955

>  <assay_description>  (199) 
Displacement of [125I]DOI from human 5HT2B receptor expressed in CHO cells

>  <parent_molecule_chembl_id>  (199) 
CHEMBL595645

>  <canonical_smiles>  (199) 
C[C@@H]1CNCCN1c1ccc2c(n1)[C@@H](OCc1cc(F)ccc1F)CC2

>  <standard_type>  (199) 
Ki

>  <standard_relation>  (199) 
=

>  <standard_value>  (199) 
83.0

>  <standard_units>  (199) 
nM

>  <target_pref_name>  (199) 
Serotonin 2b (5-HT2b) receptor

>  <target_chembl_id>  (199) 
CHEMBL1833

>  <target_organism>  (199) 
Homo sapiens

>  <pchembl_median>  (199) 
7.0

$$$$
CHEMBL590580
     RDKit          2D

 17 19  0  0  0  0  0  0  0  0999 V2000
    0.7716    6.7511    0.0000 C   0  0  0  0  0  0  0  0  0  0  0  0
   -0.2487    5.6515    0.0000 C   0  0  0  0  0  0  0  0  0  0  0  0
   -1.7110    5.9853    0.0000 C   0  0  0  0  0  0  0  0  0  0  0  0
   -2.7313    4.8857    0.0000 C   0  0  0  0  0  0  0  0  0  0  0  0
   -2.2892    3.4524    0.0000 C   0  0  0  0  0  0  0  0  0  0  0  0
   -0.8268    3.1186    0.0000 C   0  0  0  0  0  0  0  0  0  0  0  0
    0.1935    4.2182    0.0000 C   0  0  0  0  0  0  0  0  0  0  0  0
    1.6559    3.8844    0.0000 C   0  0  0  0  0  0  0  0  0  0  0  0
    2.6761    4.9840    0.0000 O   0  0  0  0  0  0  0  0  0  0  0  0
    2.0980    2.4510    0.0000 N   0  0  0  0  0  0  0  0  0  0  0  0
    1.0777    1.3515    0.0000 C   0  0  0  0  0  0  0  0  0  0  0  0
    1.7286    0.0000    0.0000 C   0  0  0  0  0  0  0  0  0  0  0  0
    1.0777   -1.3515    0.0000 C   0  0  0  0  0  0  0  0  0  0  0  0
   -0.3846   -1.6852    0.0000 N   0  0  0  0  0  0  0  0  0  0  0  0
   -1.5574   -0.7500    0.0000 C   0  0  0  0  0  0  0  0  0  0  0  0
   -1.5574    0.7500    0.0000 C   0  0  0  0  0  0  0  0  0  0  0  0
   -0.3846    1.6852    0.0000 N   0  0  0  0  0  0  0  0  0  0  0  0
  1  2  1  0
  2  3  2  0
  3  4  1  0
  4  5  2  0
  5  6  1  0
  6  7  2  0
  7  8  1  0
  8  9  2  0
  8 10  1  0
 10 11  1  0
 11 12  1  0
 12 13  1  0
 13 14  1  0
 14 15  1  0
 15 16  1  0
 16 17  1  0
  7  2  1  0
 17 11  1  0
 17  6  1  0
M  END
>  <assay_chembl_id>  (200) 
CHEMBL1066138

>  <assay_description>  (200) 
Displacement of [125I]LSD from human recombinant 5HT2B receptor expressed in HEK293E cells

>  <parent_molecule_chembl_id>  (200) 
CHEMBL590580

>  <canonical_smiles>  (200) 
Cc1cccc2c1C(=O)NC1CCNCCN21

>  <standard_type>  (200) 
Ki

>  <standard_relation>  (200) 
=

>  <standard_value>  (200) 
10.0

>  <standard_units>  (200) 
nM

>  <target_pref_name>  (200) 
Serotonin 2b (5-HT2b) receptor

>  <target_chembl_id>  (200) 
CHEMBL1833

>  <target_organism>  (200) 
Homo sapiens

>  <pchembl_median>  (200) 
6.6

$$$$
CHEMBL590483
     RDKit          2D

 17 19  0  0  0  0  0  0  0  0999 V2000
    2.6761    4.9840    0.0000 O   0  0  0  0  0  0  0  0  0  0  0  0
    1.6559    3.8844    0.0000 C   0  0  0  0  0  0  0  0  0  0  0  0
    2.0980    2.4510    0.0000 N   0  0  0  0  0  0  0  0  0  0  0  0
    1.0777    1.3515    0.0000 C   0  0  0  0  0  0  0  0  0  0  0  0
    1.7286    0.0000    0.0000 C   0  0  0  0  0  0  0  0  0  0  0  0
    1.0777   -1.3515    0.0000 C   0  0  0  0  0  0  0  0  0  0  0  0
   -0.3846   -1.6852    0.0000 N   0  0  0  0  0  0  0  0  0  0  0  0
   -1.5574   -0.7500    0.0000 C   0  0  0  0  0  0  0  0  0  0  0  0
   -1.5574    0.7500    0.0000 C   0  0  0  0  0  0  0  0  0  0  0  0
   -0.3846    1.6852    0.0000 N   0  0  0  0  0  0  0  0  0  0  0  0
   -0.8268    3.1186    0.0000 C   0  0  0  0  0  0  0  0  0  0  0  0
   -2.2892    3.4524    0.0000 C   0  0  0  0  0  0  0  0  0  0  0  0
   -2.7313    4.8857    0.0000 C   0  0  0  0  0  0  0  0  0  0  0  0
   -1.7110    5.9853    0.0000 C   0  0  0  0  0  0  0  0  0  0  0  0
   -0.2487    5.6515    0.0000 C   0  0  0  0  0  0  0  0  0  0  0  0
    0.7716    6.7511    0.0000 Cl  0  0  0  0  0  0  0  0  0  0  0  0
    0.1935    4.2182    0.0000 C   0  0  0  0  0  0  0  0  0  0  0  0
  1  2  2  0
  2  3  1  0
  3  4  1  0
  4  5  1  0
  5  6  1  0
  6  7  1  0
  7  8  1  0
  8  9  1  0
  9 10  1  0
 10 11  1  0
 11 12  2  0
 12 13  1  0
 13 14  2  0
 14 15  1  0
 15 16  1  0
 15 17  2  0
 17  2  1  0
 10  4  1  0
 17 11  1  0
M  END
>  <assay_chembl_id>  (201) 
CHEMBL1066138

>  <assay_description>  (201) 
Displacement of [125I]LSD from human recombinant 5HT2B receptor expressed in HEK293E cells

>  <parent_molecule_chembl_id>  (201) 
CHEMBL590483

>  <canonical_smiles>  (201) 
O=C1NC2CCNCCN2c2cccc(Cl)c21

>  <standard_type>  (201) 
Ki

>  <standard_relation>  (201) 
=

>  <standard_value>  (201) 
23.0

>  <standard_units>  (201) 
nM

>  <target_pref_name>  (201) 
Serotonin 2b (5-HT2b) receptor

>  <target_chembl_id>  (201) 
CHEMBL1833

>  <target_organism>  (201) 
Homo sapiens

>  <pchembl_median>  (201) 
6.7

$$$$
CHEMBL590531
     RDKit          2D

 17 19  0  0  0  0  0  0  0  0999 V2000
    6.0430    2.8830    0.0000 C   0  0  0  0  0  0  0  0  0  0  0  0
    4.5807    3.2168    0.0000 C   0  0  0  0  0  0  0  0  0  0  0  0
    4.1385    4.6502    0.0000 C   0  0  0  0  0  0  0  0  0  0  0  0
    2.6761    4.9840    0.0000 C   0  0  0  0  0  0  0  0  0  0  0  0
    1.6559    3.8844    0.0000 C   0  0  0  0  0  0  0  0  0  0  0  0
    2.0980    2.4510    0.0000 C   0  0  0  0  0  0  0  0  0  0  0  0
    3.5604    2.1172    0.0000 C   0  0  0  0  0  0  0  0  0  0  0  0
    1.0777    1.3515    0.0000 N   0  0  0  0  0  0  0  0  0  0  0  0
    1.7286    0.0000    0.0000 C   0  0  0  0  0  0  0  0  0  0  0  0
    1.0777   -1.3515    0.0000 C   0  0  0  0  0  0  0  0  0  0  0  0
   -0.3846   -1.6852    0.0000 N   0  0  0  0  0  0  0  0  0  0  0  0
   -1.5574   -0.7500    0.0000 C   0  0  0  0  0  0  0  0  0  0  0  0
   -1.5574    0.7500    0.0000 C   0  0  0  0  0  0  0  0  0  0  0  0
   -0.3846    1.6852    0.0000 C   0  0  0  0  0  0  0  0  0  0  0  0
   -0.8268    3.1186    0.0000 N   0  0  0  0  0  0  0  0  0  0  0  0
    0.1935    4.2182    0.0000 C   0  0  0  0  0  0  0  0  0  0  0  0
   -0.2487    5.6515    0.0000 O   0  0  0  0  0  0  0  0  0  0  0  0
  1  2  1  0
  2  3  2  0
  3  4  1  0
  4  5  2  0
  5  6  1  0
  6  7  2  0
  6  8  1  0
  8  9  1  0
  9 10  1  0
 10 11  1  0
 11 12  1  0
 12 13  1  0
 13 14  1  0
 14 15  1  0
 15 16  1  0
 16 17  2  0
  7  2  1  0
 14  8  1  0
 16  5  1  0
M  END
>  <assay_chembl_id>  (202) 
CHEMBL1066138

>  <assay_description>  (202) 
Displacement of [125I]LSD from human recombinant 5HT2B receptor expressed in HEK293E cells

>  <parent_molecule_chembl_id>  (202) 
CHEMBL590531

>  <canonical_smiles>  (202) 
Cc1ccc2c(c1)N1CCNCCC1NC2=O

>  <standard_type>  (202) 
Ki

>  <standard_relation>  (202) 
=

>  <standard_value>  (202) 
51.0

>  <standard_units>  (202) 
nM

>  <target_pref_name>  (202) 
Serotonin 2b (5-HT2b) receptor

>  <target_chembl_id>  (202) 
CHEMBL1833

>  <target_organism>  (202) 
Homo sapiens

>  <pchembl_median>  (202) 
5.62

$$$$
CHEMBL590721
     RDKit          2D

 17 19  0  0  0  0  0  0  0  0999 V2000
    2.6761    4.9840    0.0000 O   0  0  0  0  0  0  0  0  0  0  0  0
    1.6559    3.8844    0.0000 C   0  0  0  0  0  0  0  0  0  0  0  0
    2.0980    2.4510    0.0000 N   0  0  0  0  0  0  0  0  0  0  0  0
    1.0777    1.3515    0.0000 C   0  0  0  0  0  0  0  0  0  0  0  0
    1.7286    0.0000    0.0000 C   0  0  0  0  0  0  0  0  0  0  0  0
    1.0777   -1.3515    0.0000 N   0  0  0  0  0  0  0  0  0  0  0  0
   -0.3846   -1.6852    0.0000 C   0  0  0  0  0  0  0  0  0  0  0  0
   -1.5574   -0.7500    0.0000 C   0  0  0  0  0  0  0  0  0  0  0  0
   -1.5574    0.7500    0.0000 C   0  0  0  0  0  0  0  0  0  0  0  0
   -0.3846    1.6852    0.0000 N   0  0  0  0  0  0  0  0  0  0  0  0
   -0.8268    3.1186    0.0000 C   0  0  0  0  0  0  0  0  0  0  0  0
   -2.2892    3.4524    0.0000 C   0  0  0  0  0  0  0  0  0  0  0  0
   -2.7313    4.8857    0.0000 C   0  0  0  0  0  0  0  0  0  0  0  0
   -1.7110    5.9853    0.0000 C   0  0  0  0  0  0  0  0  0  0  0  0
   -0.2487    5.6515    0.0000 C   0  0  0  0  0  0  0  0  0  0  0  0
    0.7716    6.7511    0.0000 Cl  0  0  0  0  0  0  0  0  0  0  0  0
    0.1935    4.2182    0.0000 C   0  0  0  0  0  0  0  0  0  0  0  0
  1  2  2  0
  2  3  1  0
  3  4  1  0
  4  5  1  0
  5  6  1  0
  6  7  1  0
  7  8  1  0
  8  9  1  0
  9 10  1  0
 10 11  1  0
 11 12  2  0
 12 13  1  0
 13 14  2  0
 14 15  1  0
 15 16  1  0
 15 17  2  0
 17  2  1  0
 10  4  1  0
 17 11  1  0
M  END
>  <assay_chembl_id>  (203) 
CHEMBL1066138

>  <assay_description>  (203) 
Displacement of [125I]LSD from human recombinant 5HT2B receptor expressed in HEK293E cells

>  <parent_molecule_chembl_id>  (203) 
CHEMBL590721

>  <canonical_smiles>  (203) 
O=C1NC2CNCCCN2c2cccc(Cl)c21

>  <standard_type>  (203) 
Ki

>  <standard_relation>  (203) 
=

>  <standard_value>  (203) 
734.0

>  <standard_units>  (203) 
nM

>  <target_pref_name>  (203) 
Serotonin 2b (5-HT2b) receptor

>  <target_chembl_id>  (203) 
CHEMBL1833

>  <target_organism>  (203) 
Homo sapiens

>  <pchembl_median>  (203) 
6.85

$$$$
CHEMBL590816
     RDKit          2D

 16 18  0  0  0  0  0  0  0  0999 V2000
    2.6761    4.9840    0.0000 O   0  0  0  0  0  0  0  0  0  0  0  0
    1.6559    3.8844    0.0000 C   0  0  0  0  0  0  0  0  0  0  0  0
    2.0980    2.4510    0.0000 N   0  0  0  0  0  0  0  0  0  0  0  0
    1.0777    1.3515    0.0000 C   0  0  0  0  0  0  0  0  0  0  0  0
    1.7286    0.0000    0.0000 C   0  0  0  0  0  0  0  0  0  0  0  0
    1.0777   -1.3515    0.0000 C   0  0  0  0  0  0  0  0  0  0  0  0
   -0.3846   -1.6852    0.0000 N   0  0  0  0  0  0  0  0  0  0  0  0
   -1.5574   -0.7500    0.0000 C   0  0  0  0  0  0  0  0  0  0  0  0
   -1.5574    0.7500    0.0000 C   0  0  0  0  0  0  0  0  0  0  0  0
   -0.3846    1.6852    0.0000 N   0  0  0  0  0  0  0  0  0  0  0  0
   -0.8268    3.1186    0.0000 C   0  0  0  0  0  0  0  0  0  0  0  0
   -2.2892    3.4524    0.0000 C   0  0  0  0  0  0  0  0  0  0  0  0
   -2.7313    4.8857    0.0000 C   0  0  0  0  0  0  0  0  0  0  0  0
   -1.7110    5.9853    0.0000 C   0  0  0  0  0  0  0  0  0  0  0  0
   -0.2487    5.6515    0.0000 C   0  0  0  0  0  0  0  0  0  0  0  0
    0.1935    4.2182    0.0000 C   0  0  0  0  0  0  0  0  0  0  0  0
  1  2  2  0
  2  3  1  0
  3  4  1  0
  4  5  1  0
  5  6  1  0
  6  7  1  0
  7  8  1  0
  8  9  1  0
  9 10  1  0
 10 11  1  0
 11 12  2  0
 12 13  1  0
 13 14  2  0
 14 15  1  0
 15 16  2  0
 16  2  1  0
 10  4  1  0
 16 11  1  0
M  END
>  <assay_chembl_id>  (204) 
CHEMBL1066138

>  <assay_description>  (204) 
Displacement of [125I]LSD from human recombinant 5HT2B receptor expressed in HEK293E cells

>  <parent_molecule_chembl_id>  (204) 
CHEMBL590816

>  <canonical_smiles>  (204) 
O=C1NC2CCNCCN2c2ccccc21

>  <standard_type>  (204) 
Ki

>  <standard_relation>  (204) 
=

>  <standard_value>  (204) 
67.0

>  <standard_units>  (204) 
nM

>  <target_pref_name>  (204) 
Serotonin 2b (5-HT2b) receptor

>  <target_chembl_id>  (204) 
CHEMBL1833

>  <target_organism>  (204) 
Homo sapiens

>  <pchembl_median>  (204) 
5.21

$$$$
CHEMBL590333
     RDKit          2D

 19 21  0  0  0  0  0  0  0  0999 V2000
    1.5000   -5.1962    0.0000 O   0  0  0  0  0  0  0  0  0  0  0  0
    0.7500   -3.8971    0.0000 C   0  0  0  0  0  0  0  0  0  0  0  0
    1.5000   -2.5981    0.0000 N   0  0  0  0  0  0  0  0  0  0  0  0
    0.7500   -1.2990    0.0000 C   0  0  0  0  0  0  0  0  0  0  0  0
    1.5000    0.0000    0.0000 C   0  0  0  0  0  0  0  0  0  0  0  0
    0.7500    1.2990    0.0000 N   0  0  0  0  0  0  0  0  0  0  0  0
   -0.7500    1.2990    0.0000 C   0  0  0  0  0  0  0  0  0  0  0  0
   -1.5000    0.0000    0.0000 C   0  0  0  0  0  0  0  0  0  0  0  0
   -0.7500   -1.2990    0.0000 N   0  0  0  0  0  0  0  0  0  0  0  0
   -1.5000   -2.5981    0.0000 C   0  0  0  0  0  0  0  0  0  0  0  0
   -3.0000   -2.5981    0.0000 C   0  0  0  0  0  0  0  0  0  0  0  0
   -3.7500   -3.8971    0.0000 C   0  0  0  0  0  0  0  0  0  0  0  0
   -3.0000   -5.1962    0.0000 C   0  0  0  0  0  0  0  0  0  0  0  0
   -1.5000   -5.1962    0.0000 C   0  0  0  0  0  0  0  0  0  0  0  0
   -0.7500   -6.4952    0.0000 C   0  0  0  0  0  0  0  0  0  0  0  0
    0.0000   -7.7942    0.0000 F   0  0  0  0  0  0  0  0  0  0  0  0
   -2.0490   -7.2452    0.0000 F   0  0  0  0  0  0  0  0  0  0  0  0
    0.5490   -5.7452    0.0000 F   0  0  0  0  0  0  0  0  0  0  0  0
   -0.7500   -3.8971    0.0000 C   0  0  0  0  0  0  0  0  0  0  0  0
  1  2  2  0
  2  3  1  0
  3  4  1  0
  4  5  1  0
  5  6  1  0
  6  7  1  0
  7  8  1  0
  8  9  1  0
  9 10  1  0
 10 11  2  0
 11 12  1  0
 12 13  2  0
 13 14  1  0
 14 15  1  0
 15 16  1  0
 15 17  1  0
 15 18  1  0
 14 19  2  0
 19  2  1  0
  9  4  1  0
 19 10  1  0
M  END
>  <assay_chembl_id>  (205) 
CHEMBL1066138

>  <assay_description>  (205) 
Displacement of [125I]LSD from human recombinant 5HT2B receptor expressed in HEK293E cells

>  <parent_molecule_chembl_id>  (205) 
CHEMBL590333

>  <canonical_smiles>  (205) 
O=C1NC2CNCCN2c2cccc(C(F)(F)F)c21

>  <standard_type>  (205) 
Ki

>  <standard_relation>  (205) 
=

>  <standard_value>  (205) 
13.0

>  <standard_units>  (205) 
nM

>  <target_pref_name>  (205) 
Serotonin 2b (5-HT2b) receptor

>  <target_chembl_id>  (205) 
CHEMBL1833

>  <target_organism>  (205) 
Homo sapiens

>  <pchembl_median>  (205) 
6.04

$$$$
CHEMBL590482
     RDKit          2D

 16 18  0  0  0  0  0  0  0  0999 V2000
    1.5000   -5.1962    0.0000 O   0  0  0  0  0  0  0  0  0  0  0  0
    0.7500   -3.8971    0.0000 C   0  0  0  0  0  0  0  0  0  0  0  0
    1.5000   -2.5981    0.0000 N   0  0  0  0  0  0  0  0  0  0  0  0
    0.7500   -1.2990    0.0000 C   0  0  0  0  0  0  0  0  0  0  0  0
    1.5000    0.0000    0.0000 C   0  0  0  0  0  0  0  0  0  0  0  0
    0.7500    1.2990    0.0000 N   0  0  0  0  0  0  0  0  0  0  0  0
   -0.7500    1.2990    0.0000 C   0  0  0  0  0  0  0  0  0  0  0  0
   -1.5000    0.0000    0.0000 C   0  0  0  0  0  0  0  0  0  0  0  0
   -0.7500   -1.2990    0.0000 N   0  0  0  0  0  0  0  0  0  0  0  0
   -1.5000   -2.5981    0.0000 C   0  0  0  0  0  0  0  0  0  0  0  0
   -3.0000   -2.5981    0.0000 C   0  0  0  0  0  0  0  0  0  0  0  0
   -3.7500   -3.8971    0.0000 C   0  0  0  0  0  0  0  0  0  0  0  0
   -3.0000   -5.1962    0.0000 C   0  0  0  0  0  0  0  0  0  0  0  0
   -3.7500   -6.4952    0.0000 Cl  0  0  0  0  0  0  0  0  0  0  0  0
   -1.5000   -5.1962    0.0000 C   0  0  0  0  0  0  0  0  0  0  0  0
   -0.7500   -3.8971    0.0000 C   0  0  0  0  0  0  0  0  0  0  0  0
  1  2  2  0
  2  3  1  0
  3  4  1  0
  4  5  1  0
  5  6  1  0
  6  7  1  0
  7  8  1  0
  8  9  1  0
  9 10  1  0
 10 11  2  0
 11 12  1  0
 12 13  2  0
 13 14  1  0
 13 15  1  0
 15 16  2  0
 16  2  1  0
  9  4  1  0
 16 10  1  0
M  END
>  <assay_chembl_id>  (206) 
CHEMBL1066138

>  <assay_description>  (206) 
Displacement of [125I]LSD from human recombinant 5HT2B receptor expressed in HEK293E cells

>  <parent_molecule_chembl_id>  (206) 
CHEMBL590482

>  <canonical_smiles>  (206) 
O=C1NC2CNCCN2c2ccc(Cl)cc21

>  <standard_type>  (206) 
Ki

>  <standard_relation>  (206) 
=

>  <standard_value>  (206) 
72.0

>  <standard_units>  (206) 
nM

>  <target_pref_name>  (206) 
Serotonin 2b (5-HT2b) receptor

>  <target_chembl_id>  (206) 
CHEMBL1833

>  <target_organism>  (206) 
Homo sapiens

>  <pchembl_median>  (206) 
7.06

$$$$
CHEMBL605402
     RDKit          2D

 16 18  0  0  0  0  0  0  0  0999 V2000
    1.5000   -5.1962    0.0000 O   0  0  0  0  0  0  0  0  0  0  0  0
    0.7500   -3.8971    0.0000 C   0  0  0  0  0  0  0  0  0  0  0  0
    1.5000   -2.5981    0.0000 N   0  0  0  0  0  0  0  0  0  0  0  0
    0.7500   -1.2990    0.0000 C   0  0  0  0  0  0  0  0  0  0  0  0
    1.5000    0.0000    0.0000 C   0  0  0  0  0  0  0  0  0  0  0  0
    0.7500    1.2990    0.0000 N   0  0  0  0  0  0  0  0  0  0  0  0
   -0.7500    1.2990    0.0000 C   0  0  0  0  0  0  0  0  0  0  0  0
   -1.5000    0.0000    0.0000 C   0  0  0  0  0  0  0  0  0  0  0  0
   -0.7500   -1.2990    0.0000 N   0  0  0  0  0  0  0  0  0  0  0  0
   -1.5000   -2.5981    0.0000 C   0  0  0  0  0  0  0  0  0  0  0  0
   -3.0000   -2.5981    0.0000 C   0  0  0  0  0  0  0  0  0  0  0  0
   -3.7500   -3.8971    0.0000 C   0  0  0  0  0  0  0  0  0  0  0  0
   -3.0000   -5.1962    0.0000 C   0  0  0  0  0  0  0  0  0  0  0  0
   -1.5000   -5.1962    0.0000 C   0  0  0  0  0  0  0  0  0  0  0  0
   -0.7500   -6.4952    0.0000 Cl  0  0  0  0  0  0  0  0  0  0  0  0
   -0.7500   -3.8971    0.0000 C   0  0  0  0  0  0  0  0  0  0  0  0
  1  2  2  0
  2  3  1  0
  3  4  1  0
  4  5  1  0
  5  6  1  0
  6  7  1  0
  7  8  1  0
  8  9  1  0
  9 10  1  0
 10 11  2  0
 11 12  1  0
 12 13  2  0
 13 14  1  0
 14 15  1  0
 14 16  2  0
 16  2  1  0
  9  4  1  0
 16 10  1  0
M  END
>  <assay_chembl_id>  (207) 
CHEMBL1066138

>  <assay_description>  (207) 
Displacement of [125I]LSD from human recombinant 5HT2B receptor expressed in HEK293E cells

>  <parent_molecule_chembl_id>  (207) 
CHEMBL605402

>  <canonical_smiles>  (207) 
O=C1NC2CNCCN2c2cccc(Cl)c21

>  <standard_type>  (207) 
Ki

>  <standard_relation>  (207) 
=

>  <standard_value>  (207) 
18.0

>  <standard_units>  (207) 
nM

>  <target_pref_name>  (207) 
Serotonin 2b (5-HT2b) receptor

>  <target_chembl_id>  (207) 
CHEMBL1833

>  <target_organism>  (207) 
Homo sapiens

>  <pchembl_median>  (207) 
7.31

$$$$
CHEMBL590332
     RDKit          2D

 16 18  0  0  0  0  0  0  0  0999 V2000
    3.7500   -1.2990    0.0000 C   0  0  0  0  0  0  0  0  0  0  0  0
    3.0000   -2.5981    0.0000 C   0  0  0  0  0  0  0  0  0  0  0  0
    3.7500   -3.8971    0.0000 C   0  0  0  0  0  0  0  0  0  0  0  0
    3.0000   -5.1962    0.0000 C   0  0  0  0  0  0  0  0  0  0  0  0
    1.5000   -5.1962    0.0000 C   0  0  0  0  0  0  0  0  0  0  0  0
    0.7500   -3.8971    0.0000 C   0  0  0  0  0  0  0  0  0  0  0  0
    1.5000   -2.5981    0.0000 C   0  0  0  0  0  0  0  0  0  0  0  0
    0.7500   -1.2990    0.0000 N   0  0  0  0  0  0  0  0  0  0  0  0
    1.5000    0.0000    0.0000 C   0  0  0  0  0  0  0  0  0  0  0  0
    0.7500    1.2990    0.0000 C   0  0  0  0  0  0  0  0  0  0  0  0
   -0.7500    1.2990    0.0000 N   0  0  0  0  0  0  0  0  0  0  0  0
   -1.5000    0.0000    0.0000 C   0  0  0  0  0  0  0  0  0  0  0  0
   -0.7500   -1.2990    0.0000 C   0  0  0  0  0  0  0  0  0  0  0  0
   -1.5000   -2.5981    0.0000 N   0  0  0  0  0  0  0  0  0  0  0  0
   -0.7500   -3.8971    0.0000 C   0  0  0  0  0  0  0  0  0  0  0  0
   -1.5000   -5.1962    0.0000 O   0  0  0  0  0  0  0  0  0  0  0  0
  1  2  1  0
  2  3  2  0
  3  4  1  0
  4  5  2  0
  5  6  1  0
  6  7  2  0
  7  8  1  0
  8  9  1  0
  9 10  1  0
 10 11  1  0
 11 12  1  0
 12 13  1  0
 13 14  1  0
 14 15  1  0
 15 16  2  0
  7  2  1  0
 13  8  1  0
 15  6  1  0
M  END
>  <assay_chembl_id>  (208) 
CHEMBL1066138

>  <assay_description>  (208) 
Displacement of [125I]LSD from human recombinant 5HT2B receptor expressed in HEK293E cells

>  <parent_molecule_chembl_id>  (208) 
CHEMBL590332

>  <canonical_smiles>  (208) 
Cc1cccc2c1N1CCNCC1NC2=O

>  <standard_type>  (208) 
Ki

>  <standard_relation>  (208) 
=

>  <standard_value>  (208) 
2395.0

>  <standard_units>  (208) 
nM

>  <target_pref_name>  (208) 
Serotonin 2b (5-HT2b) receptor

>  <target_chembl_id>  (208) 
CHEMBL1833

>  <target_organism>  (208) 
Homo sapiens

>  <pchembl_median>  (208) 
6.73

$$$$
CHEMBL590331
     RDKit          2D

 16 18  0  0  0  0  0  0  0  0999 V2000
    5.2500   -3.8971    0.0000 C   0  0  0  0  0  0  0  0  0  0  0  0
    3.7500   -3.8971    0.0000 C   0  0  0  0  0  0  0  0  0  0  0  0
    3.0000   -5.1962    0.0000 C   0  0  0  0  0  0  0  0  0  0  0  0
    1.5000   -5.1962    0.0000 C   0  0  0  0  0  0  0  0  0  0  0  0
    0.7500   -3.8971    0.0000 C   0  0  0  0  0  0  0  0  0  0  0  0
    1.5000   -2.5981    0.0000 C   0  0  0  0  0  0  0  0  0  0  0  0
    3.0000   -2.5981    0.0000 C   0  0  0  0  0  0  0  0  0  0  0  0
    0.7500   -1.2990    0.0000 N   0  0  0  0  0  0  0  0  0  0  0  0
    1.5000    0.0000    0.0000 C   0  0  0  0  0  0  0  0  0  0  0  0
    0.7500    1.2990    0.0000 C   0  0  0  0  0  0  0  0  0  0  0  0
   -0.7500    1.2990    0.0000 N   0  0  0  0  0  0  0  0  0  0  0  0
   -1.5000    0.0000    0.0000 C   0  0  0  0  0  0  0  0  0  0  0  0
   -0.7500   -1.2990    0.0000 C   0  0  0  0  0  0  0  0  0  0  0  0
   -1.5000   -2.5981    0.0000 N   0  0  0  0  0  0  0  0  0  0  0  0
   -0.7500   -3.8971    0.0000 C   0  0  0  0  0  0  0  0  0  0  0  0
   -1.5000   -5.1962    0.0000 O   0  0  0  0  0  0  0  0  0  0  0  0
  1  2  1  0
  2  3  2  0
  3  4  1  0
  4  5  2  0
  5  6  1  0
  6  7  2  0
  6  8  1  0
  8  9  1  0
  9 10  1  0
 10 11  1  0
 11 12  1  0
 12 13  1  0
 13 14  1  0
 14 15  1  0
 15 16  2  0
  7  2  1  0
 13  8  1  0
 15  5  1  0
M  END
>  <assay_chembl_id>  (209) 
CHEMBL1066138

>  <assay_description>  (209) 
Displacement of [125I]LSD from human recombinant 5HT2B receptor expressed in HEK293E cells

>  <parent_molecule_chembl_id>  (209) 
CHEMBL590331

>  <canonical_smiles>  (209) 
Cc1ccc2c(c1)N1CCNCC1NC2=O

>  <standard_type>  (209) 
Ki

>  <standard_relation>  (209) 
=

>  <standard_value>  (209) 
280.0

>  <standard_units>  (209) 
nM

>  <target_pref_name>  (209) 
Serotonin 2b (5-HT2b) receptor

>  <target_chembl_id>  (209) 
CHEMBL1833

>  <target_organism>  (209) 
Homo sapiens

>  <pchembl_median>  (209) 
6.11

$$$$
CHEMBL590089
     RDKit          2D

 16 18  0  0  0  0  0  0  0  0999 V2000
   -3.7500   -6.4952    0.0000 C   0  0  0  0  0  0  0  0  0  0  0  0
   -3.0000   -5.1962    0.0000 C   0  0  0  0  0  0  0  0  0  0  0  0
   -3.7500   -3.8971    0.0000 C   0  0  0  0  0  0  0  0  0  0  0  0
   -3.0000   -2.5981    0.0000 C   0  0  0  0  0  0  0  0  0  0  0  0
   -1.5000   -2.5981    0.0000 C   0  0  0  0  0  0  0  0  0  0  0  0
   -0.7500   -3.8971    0.0000 C   0  0  0  0  0  0  0  0  0  0  0  0
   -1.5000   -5.1962    0.0000 C   0  0  0  0  0  0  0  0  0  0  0  0
    0.7500   -3.8971    0.0000 C   0  0  0  0  0  0  0  0  0  0  0  0
    1.5000   -5.1962    0.0000 O   0  0  0  0  0  0  0  0  0  0  0  0
    1.5000   -2.5981    0.0000 N   0  0  0  0  0  0  0  0  0  0  0  0
    0.7500   -1.2990    0.0000 C   0  0  0  0  0  0  0  0  0  0  0  0
    1.5000    0.0000    0.0000 C   0  0  0  0  0  0  0  0  0  0  0  0
    0.7500    1.2990    0.0000 N   0  0  0  0  0  0  0  0  0  0  0  0
   -0.7500    1.2990    0.0000 C   0  0  0  0  0  0  0  0  0  0  0  0
   -1.5000    0.0000    0.0000 C   0  0  0  0  0  0  0  0  0  0  0  0
   -0.7500   -1.2990    0.0000 N   0  0  0  0  0  0  0  0  0  0  0  0
  1  2  1  0
  2  3  2  0
  3  4  1  0
  4  5  2  0
  5  6  1  0
  6  7  2  0
  6  8  1  0
  8  9  2  0
  8 10  1  0
 10 11  1  0
 11 12  1  0
 12 13  1  0
 13 14  1  0
 14 15  1  0
 15 16  1  0
  7  2  1  0
 16 11  1  0
 16  5  1  0
M  END
>  <assay_chembl_id>  (210) 
CHEMBL1066138

>  <assay_description>  (210) 
Displacement of [125I]LSD from human recombinant 5HT2B receptor expressed in HEK293E cells

>  <parent_molecule_chembl_id>  (210) 
CHEMBL590089

>  <canonical_smiles>  (210) 
Cc1ccc2c(c1)C(=O)NC1CNCCN21

>  <standard_type>  (210) 
Ki

>  <standard_relation>  (210) 
=

>  <standard_value>  (210) 
61.0

>  <standard_units>  (210) 
nM

>  <target_pref_name>  (210) 
Serotonin 2b (5-HT2b) receptor

>  <target_chembl_id>  (210) 
CHEMBL1833

>  <target_organism>  (210) 
Homo sapiens

>  <pchembl_median>  (210) 
8.4

$$$$
CHEMBL590078
     RDKit          2D

 16 18  0  0  0  0  0  0  0  0999 V2000
   -0.7500   -6.4952    0.0000 C   0  0  0  0  0  0  0  0  0  0  0  0
   -1.5000   -5.1962    0.0000 C   0  0  0  0  0  0  0  0  0  0  0  0
   -3.0000   -5.1962    0.0000 C   0  0  0  0  0  0  0  0  0  0  0  0
   -3.7500   -3.8971    0.0000 C   0  0  0  0  0  0  0  0  0  0  0  0
   -3.0000   -2.5981    0.0000 C   0  0  0  0  0  0  0  0  0  0  0  0
   -1.5000   -2.5981    0.0000 C   0  0  0  0  0  0  0  0  0  0  0  0
   -0.7500   -3.8971    0.0000 C   0  0  0  0  0  0  0  0  0  0  0  0
    0.7500   -3.8971    0.0000 C   0  0  0  0  0  0  0  0  0  0  0  0
    1.5000   -5.1962    0.0000 O   0  0  0  0  0  0  0  0  0  0  0  0
    1.5000   -2.5981    0.0000 N   0  0  0  0  0  0  0  0  0  0  0  0
    0.7500   -1.2990    0.0000 C   0  0  0  0  0  0  0  0  0  0  0  0
    1.5000    0.0000    0.0000 C   0  0  0  0  0  0  0  0  0  0  0  0
    0.7500    1.2990    0.0000 N   0  0  0  0  0  0  0  0  0  0  0  0
   -0.7500    1.2990    0.0000 C   0  0  0  0  0  0  0  0  0  0  0  0
   -1.5000    0.0000    0.0000 C   0  0  0  0  0  0  0  0  0  0  0  0
   -0.7500   -1.2990    0.0000 N   0  0  0  0  0  0  0  0  0  0  0  0
  1  2  1  0
  2  3  2  0
  3  4  1  0
  4  5  2  0
  5  6  1  0
  6  7  2  0
  7  8  1  0
  8  9  2  0
  8 10  1  0
 10 11  1  0
 11 12  1  0
 12 13  1  0
 13 14  1  0
 14 15  1  0
 15 16  1  0
  7  2  1  0
 16 11  1  0
 16  6  1  0
M  END
>  <assay_chembl_id>  (211) 
CHEMBL1066138

>  <assay_description>  (211) 
Displacement of [125I]LSD from human recombinant 5HT2B receptor expressed in HEK293E cells

>  <parent_molecule_chembl_id>  (211) 
CHEMBL590078

>  <canonical_smiles>  (211) 
Cc1cccc2c1C(=O)NC1CNCCN21

>  <standard_type>  (211) 
Ki

>  <standard_relation>  (211) 
=

>  <standard_value>  (211) 
206.0

>  <standard_units>  (211) 
nM

>  <target_pref_name>  (211) 
Serotonin 2b (5-HT2b) receptor

>  <target_chembl_id>  (211) 
CHEMBL1833

>  <target_organism>  (211) 
Homo sapiens

>  <pchembl_median>  (211) 
6.27

$$$$
CHEMBL590077
     RDKit          2D

 15 17  0  0  0  0  0  0  0  0999 V2000
    1.5000   -5.1962    0.0000 O   0  0  0  0  0  0  0  0  0  0  0  0
    0.7500   -3.8971    0.0000 C   0  0  0  0  0  0  0  0  0  0  0  0
    1.5000   -2.5981    0.0000 N   0  0  0  0  0  0  0  0  0  0  0  0
    0.7500   -1.2990    0.0000 C   0  0  0  0  0  0  0  0  0  0  0  0
    1.5000    0.0000    0.0000 C   0  0  0  0  0  0  0  0  0  0  0  0
    0.7500    1.2990    0.0000 N   0  0  0  0  0  0  0  0  0  0  0  0
   -0.7500    1.2990    0.0000 C   0  0  0  0  0  0  0  0  0  0  0  0
   -1.5000    0.0000    0.0000 C   0  0  0  0  0  0  0  0  0  0  0  0
   -0.7500   -1.2990    0.0000 N   0  0  0  0  0  0  0  0  0  0  0  0
   -1.5000   -2.5981    0.0000 C   0  0  0  0  0  0  0  0  0  0  0  0
   -3.0000   -2.5981    0.0000 C   0  0  0  0  0  0  0  0  0  0  0  0
   -3.7500   -3.8971    0.0000 C   0  0  0  0  0  0  0  0  0  0  0  0
   -3.0000   -5.1962    0.0000 C   0  0  0  0  0  0  0  0  0  0  0  0
   -1.5000   -5.1962    0.0000 C   0  0  0  0  0  0  0  0  0  0  0  0
   -0.7500   -3.8971    0.0000 C   0  0  0  0  0  0  0  0  0  0  0  0
  1  2  2  0
  2  3  1  0
  3  4  1  0
  4  5  1  0
  5  6  1  0
  6  7  1  0
  7  8  1  0
  8  9  1  0
  9 10  1  0
 10 11  2  0
 11 12  1  0
 12 13  2  0
 13 14  1  0
 14 15  2  0
 15  2  1  0
  9  4  1  0
 15 10  1  0
M  END
>  <assay_chembl_id>  (212) 
CHEMBL1066138

>  <assay_description>  (212) 
Displacement of [125I]LSD from human recombinant 5HT2B receptor expressed in HEK293E cells

>  <parent_molecule_chembl_id>  (212) 
CHEMBL590077

>  <canonical_smiles>  (212) 
O=C1NC2CNCCN2c2ccccc21

>  <standard_type>  (212) 
Ki

>  <standard_relation>  (212) 
=

>  <standard_value>  (212) 
137.0

>  <standard_units>  (212) 
nM

>  <target_pref_name>  (212) 
Serotonin 2b (5-HT2b) receptor

>  <target_chembl_id>  (212) 
CHEMBL1833

>  <target_organism>  (212) 
Homo sapiens

>  <pchembl_median>  (212) 
5.5

$$$$
CHEMBL597002
     RDKit          2D

 29 33  0  0  0  0  0  0  0  0999 V2000
   -4.9371  -12.1514    0.0000 N   0  0  0  0  0  0  0  0  0  0  0  0
   -5.2489  -10.6842    0.0000 C   0  0  0  0  0  0  0  0  0  0  0  0
   -6.6755  -10.2207    0.0000 C   0  0  0  0  0  0  0  0  0  0  0  0
   -6.9874   -8.7534    0.0000 C   0  0  0  0  0  0  0  0  0  0  0  0
   -5.8727   -7.7497    0.0000 N   0  0  0  0  0  0  0  0  0  0  0  0
   -6.1845   -6.2825    0.0000 C   0  0  0  0  0  0  0  0  0  0  0  0
   -7.6111   -5.8190    0.0000 C   0  0  0  0  0  0  0  0  0  0  0  0
   -7.9230   -4.3518    0.0000 C   0  0  0  0  0  0  0  0  0  0  0  0
   -6.8083   -3.3481    0.0000 C   0  0  0  0  0  0  0  0  0  0  0  0
   -6.8083   -1.8481    0.0000 N   0  0  0  0  0  0  0  0  0  0  0  0
   -5.3817   -1.3846    0.0000 N   0  0  0  0  0  0  0  0  0  0  0  0
   -4.5000   -2.5981    0.0000 C   0  0  0  0  0  0  0  0  0  0  0  0
   -3.0000   -2.5981    0.0000 S   0  0  0  0  0  0  0  0  0  0  0  0
   -3.0000   -4.0981    0.0000 O   0  0  0  0  0  0  0  0  0  0  0  0
   -3.0000   -1.0981    0.0000 O   0  0  0  0  0  0  0  0  0  0  0  0
   -1.5000   -2.5981    0.0000 C   0  0  0  0  0  0  0  0  0  0  0  0
   -0.7500   -3.8971    0.0000 C   0  0  0  0  0  0  0  0  0  0  0  0
    0.7500   -3.8971    0.0000 C   0  0  0  0  0  0  0  0  0  0  0  0
    1.5000   -2.5981    0.0000 C   0  0  0  0  0  0  0  0  0  0  0  0
    0.7500   -1.2990    0.0000 C   0  0  0  0  0  0  0  0  0  0  0  0
    1.5000    0.0000    0.0000 C   0  0  0  0  0  0  0  0  0  0  0  0
    0.7500    1.2990    0.0000 C   0  0  0  0  0  0  0  0  0  0  0  0
   -0.7500    1.2990    0.0000 C   0  0  0  0  0  0  0  0  0  0  0  0
   -1.5000    0.0000    0.0000 C   0  0  0  0  0  0  0  0  0  0  0  0
   -0.7500   -1.2990    0.0000 C   0  0  0  0  0  0  0  0  0  0  0  0
   -5.3817   -3.8116    0.0000 C   0  0  0  0  0  0  0  0  0  0  0  0
   -5.0698   -5.2788    0.0000 C   0  0  0  0  0  0  0  0  0  0  0  0
   -4.4461   -8.2133    0.0000 C   0  0  0  0  0  0  0  0  0  0  0  0
   -4.1342   -9.6805    0.0000 C   0  0  0  0  0  0  0  0  0  0  0  0
  1  2  1  0
  2  3  1  0
  3  4  1  0
  4  5  1  0
  5  6  1  0
  6  7  2  0
  7  8  1  0
  8  9  2  0
  9 10  1  0
 10 11  1  0
 11 12  2  0
 12 13  1  0
 13 14  2  0
 13 15  2  0
 13 16  1  0
 16 17  2  0
 17 18  1  0
 18 19  2  0
 19 20  1  0
 20 21  2  0
 21 22  1  0
 22 23  2  0
 23 24  1  0
 24 25  2  0
 12 26  1  0
 26 27  2  0
  5 28  1  0
 28 29  1  0
 29  2  1  0
 27  6  1  0
 26  9  1  0
 25 16  1  0
 25 20  1  0
M  END
>  <assay_chembl_id>  (213) 
CHEMBL1073456

>  <assay_description>  (213) 
Displacement of [3H]5HT from human 5HT2B receptor expressed in CHO cells by scintillation counting

>  <parent_molecule_chembl_id>  (213) 
CHEMBL597002

>  <canonical_smiles>  (213) 
NC1CCN(c2ccc3[nH]nc(S(=O)(=O)c4cccc5ccccc45)c3c2)CC1

>  <standard_type>  (213) 
Ki

>  <standard_relation>  (213) 
=

>  <standard_value>  (213) 
100.0

>  <standard_units>  (213) 
nM

>  <target_pref_name>  (213) 
Serotonin 2b (5-HT2b) receptor

>  <target_chembl_id>  (213) 
CHEMBL1833

>  <target_organism>  (213) 
Homo sapiens

>  <pchembl_median>  (213) 
7.1

$$$$
CHEMBL603483
     RDKit          2D

 29 33  0  0  0  0  0  0  0  0999 V2000
    5.8049  -11.6504    0.0000 N   0  0  0  0  0  0  0  0  0  0  0  0
    4.3783  -11.1868    0.0000 C   0  0  0  0  0  0  0  0  0  0  0  0
    3.2636  -12.1905    0.0000 C   0  0  0  0  0  0  0  0  0  0  0  0
    1.8370  -11.7270    0.0000 C   0  0  0  0  0  0  0  0  0  0  0  0
    1.5251  -10.2598    0.0000 N   0  0  0  0  0  0  0  0  0  0  0  0
    0.0986   -9.7963    0.0000 C   0  0  0  0  0  0  0  0  0  0  0  0
   -1.0162  -10.8000    0.0000 C   0  0  0  0  0  0  0  0  0  0  0  0
   -2.4427  -10.3364    0.0000 C   0  0  0  0  0  0  0  0  0  0  0  0
   -2.7546   -8.8692    0.0000 C   0  0  0  0  0  0  0  0  0  0  0  0
   -4.0537   -8.1192    0.0000 N   0  0  0  0  0  0  0  0  0  0  0  0
   -3.7418   -6.6520    0.0000 N   0  0  0  0  0  0  0  0  0  0  0  0
   -2.2500   -6.4952    0.0000 C   0  0  0  0  0  0  0  0  0  0  0  0
   -1.5000   -5.1962    0.0000 S   0  0  0  0  0  0  0  0  0  0  0  0
   -2.7990   -4.4462    0.0000 O   0  0  0  0  0  0  0  0  0  0  0  0
   -0.2010   -5.9462    0.0000 O   0  0  0  0  0  0  0  0  0  0  0  0
   -0.7500   -3.8971    0.0000 C   0  0  0  0  0  0  0  0  0  0  0  0
    0.7500   -3.8971    0.0000 C   0  0  0  0  0  0  0  0  0  0  0  0
    1.5000   -2.5981    0.0000 C   0  0  0  0  0  0  0  0  0  0  0  0
    0.7500   -1.2990    0.0000 C   0  0  0  0  0  0  0  0  0  0  0  0
    1.5000    0.0000    0.0000 C   0  0  0  0  0  0  0  0  0  0  0  0
    0.7500    1.2990    0.0000 C   0  0  0  0  0  0  0  0  0  0  0  0
   -0.7500    1.2990    0.0000 C   0  0  0  0  0  0  0  0  0  0  0  0
   -1.5000    0.0000    0.0000 C   0  0  0  0  0  0  0  0  0  0  0  0
   -0.7500   -1.2990    0.0000 C   0  0  0  0  0  0  0  0  0  0  0  0
   -1.5000   -2.5981    0.0000 C   0  0  0  0  0  0  0  0  0  0  0  0
   -1.6399   -7.8655    0.0000 C   0  0  0  0  0  0  0  0  0  0  0  0
   -0.2133   -8.3290    0.0000 C   0  0  0  0  0  0  0  0  0  0  0  0
    2.6399   -9.2561    0.0000 C   0  0  0  0  0  0  0  0  0  0  0  0
    4.0664   -9.7196    0.0000 C   0  0  0  0  0  0  0  0  0  0  0  0
  1  2  1  0
  2  3  1  0
  3  4  1  0
  4  5  1  0
  5  6  1  0
  6  7  2  0
  7  8  1  0
  8  9  2  0
  9 10  1  0
 10 11  1  0
 11 12  2  0
 12 13  1  0
 13 14  2  0
 13 15  2  0
 13 16  1  0
 16 17  2  0
 17 18  1  0
 18 19  2  0
 19 20  1  0
 20 21  2  0
 21 22  1  0
 22 23  2  0
 23 24  1  0
 24 25  2  0
 12 26  1  0
 26 27  2  0
  5 28  1  0
 28 29  1  0
 29  2  1  0
 27  6  1  0
 26  9  1  0
 25 16  1  0
 24 19  1  0
M  END
>  <assay_chembl_id>  (214) 
CHEMBL1073456

>  <assay_description>  (214) 
Displacement of [3H]5HT from human 5HT2B receptor expressed in CHO cells by scintillation counting

>  <parent_molecule_chembl_id>  (214) 
CHEMBL603483

>  <canonical_smiles>  (214) 
NC1CCN(c2ccc3[nH]nc(S(=O)(=O)c4ccc5ccccc5c4)c3c2)CC1

>  <standard_type>  (214) 
Ki

>  <standard_relation>  (214) 
=

>  <standard_value>  (214) 
1362.0

>  <standard_units>  (214) 
nM

>  <target_pref_name>  (214) 
Serotonin 2b (5-HT2b) receptor

>  <target_chembl_id>  (214) 
CHEMBL1833

>  <target_organism>  (214) 
Homo sapiens

>  <pchembl_median>  (214) 
6.72

$$$$
CHEMBL599663
     RDKit          2D

 30 34  0  0  0  0  0  0  0  0999 V2000
   -3.0000   -2.5981    0.0000 C   0  0  0  0  0  0  0  0  0  0  0  0
   -1.5000   -2.5981    0.0000 C   0  0  0  0  0  0  0  0  0  0  0  0
   -0.7500   -3.8971    0.0000 C   0  0  0  0  0  0  0  0  0  0  0  0
    0.7500   -3.8971    0.0000 C   0  0  0  0  0  0  0  0  0  0  0  0
    1.5000   -2.5981    0.0000 C   0  0  0  0  0  0  0  0  0  0  0  0
    3.0000   -2.5981    0.0000 S   0  0  0  0  0  0  0  0  0  0  0  0
    3.0000   -4.0981    0.0000 O   0  0  0  0  0  0  0  0  0  0  0  0
    3.0000   -1.0981    0.0000 O   0  0  0  0  0  0  0  0  0  0  0  0
    4.5000   -2.5981    0.0000 C   0  0  0  0  0  0  0  0  0  0  0  0
    5.3817   -1.3846    0.0000 N   0  0  0  0  0  0  0  0  0  0  0  0
    6.8083   -1.8481    0.0000 N   0  0  0  0  0  0  0  0  0  0  0  0
    6.8083   -3.3481    0.0000 C   0  0  0  0  0  0  0  0  0  0  0  0
    7.9230   -4.3518    0.0000 C   0  0  0  0  0  0  0  0  0  0  0  0
    7.6111   -5.8190    0.0000 C   0  0  0  0  0  0  0  0  0  0  0  0
    6.1845   -6.2825    0.0000 C   0  0  0  0  0  0  0  0  0  0  0  0
    5.8727   -7.7497    0.0000 N   0  0  0  0  0  0  0  0  0  0  0  0
    4.4461   -8.2133    0.0000 C   0  0  0  0  0  0  0  0  0  0  0  0
    4.1342   -9.6805    0.0000 C   0  0  0  0  0  0  0  0  0  0  0  0
    5.2489  -10.6842    0.0000 C   0  0  0  0  0  0  0  0  0  0  0  0
    4.9371  -12.1514    0.0000 N   0  0  0  0  0  0  0  0  0  0  0  0
    6.6755  -10.2207    0.0000 C   0  0  0  0  0  0  0  0  0  0  0  0
    6.9874   -8.7534    0.0000 C   0  0  0  0  0  0  0  0  0  0  0  0
    5.0698   -5.2788    0.0000 C   0  0  0  0  0  0  0  0  0  0  0  0
    5.3817   -3.8116    0.0000 C   0  0  0  0  0  0  0  0  0  0  0  0
    0.7500   -1.2990    0.0000 C   0  0  0  0  0  0  0  0  0  0  0  0
    1.5000    0.0000    0.0000 C   0  0  0  0  0  0  0  0  0  0  0  0
    0.7500    1.2990    0.0000 C   0  0  0  0  0  0  0  0  0  0  0  0
   -0.7500    1.2990    0.0000 C   0  0  0  0  0  0  0  0  0  0  0  0
   -1.5000    0.0000    0.0000 C   0  0  0  0  0  0  0  0  0  0  0  0
   -0.7500   -1.2990    0.0000 C   0  0  0  0  0  0  0  0  0  0  0  0
  1  2  1  0
  2  3  2  0
  3  4  1  0
  4  5  2  0
  5  6  1  0
  6  7  2  0
  6  8  2  0
  6  9  1  0
  9 10  2  0
 10 11  1  0
 11 12  1  0
 12 13  2  0
 13 14  1  0
 14 15  2  0
 15 16  1  0
 16 17  1  0
 17 18  1  0
 18 19  1  0
 19 20  1  0
 19 21  1  0
 21 22  1  0
 15 23  1  0
 23 24  2  0
  5 25  1  0
 25 26  2  0
 26 27  1  0
 27 28  2  0
 28 29  1  0
 29 30  2  0
 30  2  1  0
 24  9  1  0
 30 25  1  0
 24 12  1  0
 22 16  1  0
M  END
>  <assay_chembl_id>  (215) 
CHEMBL1073456

>  <assay_description>  (215) 
Displacement of [3H]5HT from human 5HT2B receptor expressed in CHO cells by scintillation counting

>  <parent_molecule_chembl_id>  (215) 
CHEMBL599663

>  <canonical_smiles>  (215) 
Cc1ccc(S(=O)(=O)c2n[nH]c3ccc(N4CCC(N)CC4)cc23)c2ccccc12

>  <standard_type>  (215) 
Ki

>  <standard_relation>  (215) 
=

>  <standard_value>  (215) 
493.0

>  <standard_units>  (215) 
nM

>  <target_pref_name>  (215) 
Serotonin 2b (5-HT2b) receptor

>  <target_chembl_id>  (215) 
CHEMBL1833

>  <target_organism>  (215) 
Homo sapiens

>  <pchembl_median>  (215) 
6.75

$$$$
CHEMBL598850
     RDKit          2D

 30 34  0  0  0  0  0  0  0  0999 V2000
   10.7420    0.5010    0.0000 N   0  0  0  0  0  0  0  0  0  0  0  0
    9.6272   -0.5026    0.0000 C   0  0  0  0  0  0  0  0  0  0  0  0
    9.9391   -1.9699    0.0000 C   0  0  0  0  0  0  0  0  0  0  0  0
    8.8244   -2.9736    0.0000 C   0  0  0  0  0  0  0  0  0  0  0  0
    7.3978   -2.5100    0.0000 N   0  0  0  0  0  0  0  0  0  0  0  0
    6.2831   -3.5137    0.0000 C   0  0  0  0  0  0  0  0  0  0  0  0
    6.5950   -4.9810    0.0000 C   0  0  0  0  0  0  0  0  0  0  0  0
    5.4802   -5.9847    0.0000 C   0  0  0  0  0  0  0  0  0  0  0  0
    4.0537   -5.5211    0.0000 C   0  0  0  0  0  0  0  0  0  0  0  0
    2.7546   -6.2711    0.0000 N   0  0  0  0  0  0  0  0  0  0  0  0
    1.6399   -5.2674    0.0000 N   0  0  0  0  0  0  0  0  0  0  0  0
    2.2500   -3.8971    0.0000 C   0  0  0  0  0  0  0  0  0  0  0  0
    1.5000   -2.5981    0.0000 S   0  0  0  0  0  0  0  0  0  0  0  0
    2.7990   -1.8481    0.0000 O   0  0  0  0  0  0  0  0  0  0  0  0
    0.2010   -3.3481    0.0000 O   0  0  0  0  0  0  0  0  0  0  0  0
    0.7500   -1.2990    0.0000 C   0  0  0  0  0  0  0  0  0  0  0  0
    1.5000    0.0000    0.0000 C   0  0  0  0  0  0  0  0  0  0  0  0
    0.7500    1.2990    0.0000 C   0  0  0  0  0  0  0  0  0  0  0  0
   -0.7500    1.2990    0.0000 C   0  0  0  0  0  0  0  0  0  0  0  0
   -1.5000    0.0000    0.0000 C   0  0  0  0  0  0  0  0  0  0  0  0
   -3.0000    0.0000    0.0000 C   0  0  0  0  0  0  0  0  0  0  0  0
   -3.7500    1.2990    0.0000 Cl  0  0  0  0  0  0  0  0  0  0  0  0
   -3.7500   -1.2990    0.0000 C   0  0  0  0  0  0  0  0  0  0  0  0
   -3.0000   -2.5981    0.0000 C   0  0  0  0  0  0  0  0  0  0  0  0
   -1.5000   -2.5981    0.0000 C   0  0  0  0  0  0  0  0  0  0  0  0
   -0.7500   -1.2990    0.0000 C   0  0  0  0  0  0  0  0  0  0  0  0
    3.7418   -4.0539    0.0000 C   0  0  0  0  0  0  0  0  0  0  0  0
    4.8565   -3.0502    0.0000 C   0  0  0  0  0  0  0  0  0  0  0  0
    7.0859   -1.0428    0.0000 C   0  0  0  0  0  0  0  0  0  0  0  0
    8.2007   -0.0391    0.0000 C   0  0  0  0  0  0  0  0  0  0  0  0
  1  2  1  0
  2  3  1  0
  3  4  1  0
  4  5  1  0
  5  6  1  0
  6  7  2  0
  7  8  1  0
  8  9  2  0
  9 10  1  0
 10 11  1  0
 11 12  2  0
 12 13  1  0
 13 14  2  0
 13 15  2  0
 13 16  1  0
 16 17  2  0
 17 18  1  0
 18 19  2  0
 19 20  1  0
 20 21  2  0
 21 22  1  0
 21 23  1  0
 23 24  2  0
 24 25  1  0
 25 26  2  0
 12 27  1  0
 27 28  2  0
  5 29  1  0
 29 30  1  0
 30  2  1  0
 28  6  1  0
 27  9  1  0
 26 16  1  0
 26 20  1  0
M  END
>  <assay_chembl_id>  (216) 
CHEMBL1073456

>  <assay_description>  (216) 
Displacement of [3H]5HT from human 5HT2B receptor expressed in CHO cells by scintillation counting

>  <parent_molecule_chembl_id>  (216) 
CHEMBL598850

>  <canonical_smiles>  (216) 
NC1CCN(c2ccc3[nH]nc(S(=O)(=O)c4cccc5c(Cl)cccc45)c3c2)CC1

>  <standard_type>  (216) 
Ki

>  <standard_relation>  (216) 
=

>  <standard_value>  (216) 
78.0

>  <standard_units>  (216) 
nM

>  <target_pref_name>  (216) 
Serotonin 2b (5-HT2b) receptor

>  <target_chembl_id>  (216) 
CHEMBL1833

>  <target_organism>  (216) 
Homo sapiens

>  <pchembl_median>  (216) 
7.4

$$$$
CHEMBL598851
     RDKit          2D

 26 29  0  0  0  0  0  0  0  0999 V2000
    3.7500   -6.4952    0.0000 N   0  0  0  0  0  0  0  0  0  0  0  0
    3.0000   -5.1962    0.0000 C   0  0  0  0  0  0  0  0  0  0  0  0
    1.5000   -5.1962    0.0000 C   0  0  0  0  0  0  0  0  0  0  0  0
    0.7500   -3.8971    0.0000 C   0  0  0  0  0  0  0  0  0  0  0  0
    1.5000   -2.5981    0.0000 N   0  0  0  0  0  0  0  0  0  0  0  0
    0.7500   -1.2990    0.0000 C   0  0  0  0  0  0  0  0  0  0  0  0
    1.5000    0.0000    0.0000 C   0  0  0  0  0  0  0  0  0  0  0  0
    0.7500    1.2990    0.0000 C   0  0  0  0  0  0  0  0  0  0  0  0
   -0.7500    1.2990    0.0000 C   0  0  0  0  0  0  0  0  0  0  0  0
   -1.7537    2.4138    0.0000 N   0  0  0  0  0  0  0  0  0  0  0  0
   -3.1240    1.8037    0.0000 N   0  0  0  0  0  0  0  0  0  0  0  0
   -2.9672    0.3119    0.0000 C   0  0  0  0  0  0  0  0  0  0  0  0
   -4.0819   -0.6918    0.0000 S   0  0  0  0  0  0  0  0  0  0  0  0
   -3.0782   -1.8065    0.0000 O   0  0  0  0  0  0  0  0  0  0  0  0
   -5.0856    0.4229    0.0000 O   0  0  0  0  0  0  0  0  0  0  0  0
   -5.1967   -1.6955    0.0000 C   0  0  0  0  0  0  0  0  0  0  0  0
   -6.6232   -1.2320    0.0000 C   0  0  0  0  0  0  0  0  0  0  0  0
   -7.7380   -2.2357    0.0000 C   0  0  0  0  0  0  0  0  0  0  0  0
   -7.4261   -3.7029    0.0000 C   0  0  0  0  0  0  0  0  0  0  0  0
   -5.9995   -4.1664    0.0000 C   0  0  0  0  0  0  0  0  0  0  0  0
   -5.6876   -5.6337    0.0000 Cl  0  0  0  0  0  0  0  0  0  0  0  0
   -4.8848   -3.1627    0.0000 C   0  0  0  0  0  0  0  0  0  0  0  0
   -1.5000    0.0000    0.0000 C   0  0  0  0  0  0  0  0  0  0  0  0
   -0.7500   -1.2990    0.0000 C   0  0  0  0  0  0  0  0  0  0  0  0
    3.0000   -2.5981    0.0000 C   0  0  0  0  0  0  0  0  0  0  0  0
    3.7500   -3.8971    0.0000 C   0  0  0  0  0  0  0  0  0  0  0  0
  1  2  1  0
  2  3  1  0
  3  4  1  0
  4  5  1  0
  5  6  1  0
  6  7  2  0
  7  8  1  0
  8  9  2  0
  9 10  1  0
 10 11  1  0
 11 12  2  0
 12 13  1  0
 13 14  2  0
 13 15  2  0
 13 16  1  0
 16 17  2  0
 17 18  1  0
 18 19  2  0
 19 20  1  0
 20 21  1  0
 20 22  2  0
 12 23  1  0
 23 24  2  0
  5 25  1  0
 25 26  1  0
 26  2  1  0
 24  6  1  0
 23  9  1  0
 22 16  1  0
M  END
>  <assay_chembl_id>  (217) 
CHEMBL1073456

>  <assay_description>  (217) 
Displacement of [3H]5HT from human 5HT2B receptor expressed in CHO cells by scintillation counting

>  <parent_molecule_chembl_id>  (217) 
CHEMBL598851

>  <canonical_smiles>  (217) 
NC1CCN(c2ccc3[nH]nc(S(=O)(=O)c4cccc(Cl)c4)c3c2)CC1

>  <standard_type>  (217) 
Ki

>  <standard_relation>  (217) 
=

>  <standard_value>  (217) 
442.0

>  <standard_units>  (217) 
nM

>  <target_pref_name>  (217) 
Serotonin 2b (5-HT2b) receptor

>  <target_chembl_id>  (217) 
CHEMBL1833

>  <target_organism>  (217) 
Homo sapiens

>  <pchembl_median>  (217) 
7.64

$$$$
CHEMBL598229
     RDKit          2D

 28 32  0  0  0  0  0  0  0  0999 V2000
   -6.7365  -11.5338    0.0000 N   0  0  0  0  0  0  0  0  0  0  0  0
   -6.1264  -10.1635    0.0000 C   0  0  0  0  0  0  0  0  0  0  0  0
   -4.6591   -9.8516    0.0000 C   0  0  0  0  0  0  0  0  0  0  0  0
   -4.5023   -8.3598    0.0000 C   0  0  0  0  0  0  0  0  0  0  0  0
   -5.8727   -7.7497    0.0000 N   0  0  0  0  0  0  0  0  0  0  0  0
   -6.1845   -6.2825    0.0000 C   0  0  0  0  0  0  0  0  0  0  0  0
   -7.6111   -5.8190    0.0000 C   0  0  0  0  0  0  0  0  0  0  0  0
   -7.9230   -4.3518    0.0000 C   0  0  0  0  0  0  0  0  0  0  0  0
   -6.8083   -3.3481    0.0000 C   0  0  0  0  0  0  0  0  0  0  0  0
   -6.8083   -1.8481    0.0000 N   0  0  0  0  0  0  0  0  0  0  0  0
   -5.3817   -1.3846    0.0000 N   0  0  0  0  0  0  0  0  0  0  0  0
   -4.5000   -2.5981    0.0000 C   0  0  0  0  0  0  0  0  0  0  0  0
   -3.0000   -2.5981    0.0000 S   0  0  0  0  0  0  0  0  0  0  0  0
   -3.0000   -4.0981    0.0000 O   0  0  0  0  0  0  0  0  0  0  0  0
   -3.0000   -1.0981    0.0000 O   0  0  0  0  0  0  0  0  0  0  0  0
   -1.5000   -2.5981    0.0000 C   0  0  0  0  0  0  0  0  0  0  0  0
   -0.7500   -3.8971    0.0000 C   0  0  0  0  0  0  0  0  0  0  0  0
    0.7500   -3.8971    0.0000 C   0  0  0  0  0  0  0  0  0  0  0  0
    1.5000   -2.5981    0.0000 C   0  0  0  0  0  0  0  0  0  0  0  0
    0.7500   -1.2990    0.0000 C   0  0  0  0  0  0  0  0  0  0  0  0
    1.5000    0.0000    0.0000 C   0  0  0  0  0  0  0  0  0  0  0  0
    0.7500    1.2990    0.0000 C   0  0  0  0  0  0  0  0  0  0  0  0
   -0.7500    1.2990    0.0000 C   0  0  0  0  0  0  0  0  0  0  0  0
   -1.5000    0.0000    0.0000 C   0  0  0  0  0  0  0  0  0  0  0  0
   -0.7500   -1.2990    0.0000 C   0  0  0  0  0  0  0  0  0  0  0  0
   -5.3817   -3.8116    0.0000 C   0  0  0  0  0  0  0  0  0  0  0  0
   -5.0698   -5.2788    0.0000 C   0  0  0  0  0  0  0  0  0  0  0  0
   -6.8764   -8.8645    0.0000 C   0  0  0  0  0  0  0  0  0  0  0  0
  2  1  1  6
  2  3  1  0
  3  4  1  0
  4  5  1  0
  5  6  1  0
  6  7  2  0
  7  8  1  0
  8  9  2  0
  9 10  1  0
 10 11  1  0
 11 12  2  0
 12 13  1  0
 13 14  2  0
 13 15  2  0
 13 16  1  0
 16 17  2  0
 17 18  1  0
 18 19  2  0
 19 20  1  0
 20 21  2  0
 21 22  1  0
 22 23  2  0
 23 24  1  0
 24 25  2  0
 12 26  1  0
 26 27  2  0
  5 28  1  0
 28  2  1  0
 27  6  1  0
 26  9  1  0
 25 16  1  0
 25 20  1  0
M  END
>  <assay_chembl_id>  (218) 
CHEMBL1073456

>  <assay_description>  (218) 
Displacement of [3H]5HT from human 5HT2B receptor expressed in CHO cells by scintillation counting

>  <parent_molecule_chembl_id>  (218) 
CHEMBL598229

>  <canonical_smiles>  (218) 
N[C@H]1CCN(c2ccc3[nH]nc(S(=O)(=O)c4cccc5ccccc45)c3c2)C1

>  <standard_type>  (218) 
Ki

>  <standard_relation>  (218) 
=

>  <standard_value>  (218) 
21.0

>  <standard_units>  (218) 
nM

>  <target_pref_name>  (218) 
Serotonin 2b (5-HT2b) receptor

>  <target_chembl_id>  (218) 
CHEMBL1833

>  <target_organism>  (218) 
Homo sapiens

>  <pchembl_median>  (218) 
5.24

$$$$
CHEMBL604102
     RDKit          2D

 28 32  0  0  0  0  0  0  0  0999 V2000
   -6.7365  -11.5338    0.0000 N   0  0  0  0  0  0  0  0  0  0  0  0
   -6.1264  -10.1635    0.0000 C   0  0  0  0  0  0  0  0  0  0  0  0
   -4.6591   -9.8516    0.0000 C   0  0  0  0  0  0  0  0  0  0  0  0
   -4.5023   -8.3598    0.0000 C   0  0  0  0  0  0  0  0  0  0  0  0
   -5.8727   -7.7497    0.0000 N   0  0  0  0  0  0  0  0  0  0  0  0
   -6.1845   -6.2825    0.0000 C   0  0  0  0  0  0  0  0  0  0  0  0
   -7.6111   -5.8190    0.0000 C   0  0  0  0  0  0  0  0  0  0  0  0
   -7.9230   -4.3518    0.0000 C   0  0  0  0  0  0  0  0  0  0  0  0
   -6.8083   -3.3481    0.0000 C   0  0  0  0  0  0  0  0  0  0  0  0
   -6.8083   -1.8481    0.0000 N   0  0  0  0  0  0  0  0  0  0  0  0
   -5.3817   -1.3846    0.0000 N   0  0  0  0  0  0  0  0  0  0  0  0
   -4.5000   -2.5981    0.0000 C   0  0  0  0  0  0  0  0  0  0  0  0
   -3.0000   -2.5981    0.0000 S   0  0  0  0  0  0  0  0  0  0  0  0
   -3.0000   -4.0981    0.0000 O   0  0  0  0  0  0  0  0  0  0  0  0
   -3.0000   -1.0981    0.0000 O   0  0  0  0  0  0  0  0  0  0  0  0
   -1.5000   -2.5981    0.0000 C   0  0  0  0  0  0  0  0  0  0  0  0
   -0.7500   -3.8971    0.0000 C   0  0  0  0  0  0  0  0  0  0  0  0
    0.7500   -3.8971    0.0000 C   0  0  0  0  0  0  0  0  0  0  0  0
    1.5000   -2.5981    0.0000 C   0  0  0  0  0  0  0  0  0  0  0  0
    0.7500   -1.2990    0.0000 C   0  0  0  0  0  0  0  0  0  0  0  0
    1.5000    0.0000    0.0000 C   0  0  0  0  0  0  0  0  0  0  0  0
    0.7500    1.2990    0.0000 C   0  0  0  0  0  0  0  0  0  0  0  0
   -0.7500    1.2990    0.0000 C   0  0  0  0  0  0  0  0  0  0  0  0
   -1.5000    0.0000    0.0000 C   0  0  0  0  0  0  0  0  0  0  0  0
   -0.7500   -1.2990    0.0000 C   0  0  0  0  0  0  0  0  0  0  0  0
   -5.3817   -3.8116    0.0000 C   0  0  0  0  0  0  0  0  0  0  0  0
   -5.0698   -5.2788    0.0000 C   0  0  0  0  0  0  0  0  0  0  0  0
   -6.8764   -8.8645    0.0000 C   0  0  0  0  0  0  0  0  0  0  0  0
  2  1  1  1
  2  3  1  0
  3  4  1  0
  4  5  1  0
  5  6  1  0
  6  7  2  0
  7  8  1  0
  8  9  2  0
  9 10  1  0
 10 11  1  0
 11 12  2  0
 12 13  1  0
 13 14  2  0
 13 15  2  0
 13 16  1  0
 16 17  2  0
 17 18  1  0
 18 19  2  0
 19 20  1  0
 20 21  2  0
 21 22  1  0
 22 23  2  0
 23 24  1  0
 24 25  2  0
 12 26  1  0
 26 27  2  0
  5 28  1  0
 28  2  1  0
 27  6  1  0
 26  9  1  0
 25 16  1  0
 25 20  1  0
M  END
>  <assay_chembl_id>  (219) 
CHEMBL1073456

>  <assay_description>  (219) 
Displacement of [3H]5HT from human 5HT2B receptor expressed in CHO cells by scintillation counting

>  <parent_molecule_chembl_id>  (219) 
CHEMBL604102

>  <canonical_smiles>  (219) 
N[C@@H]1CCN(c2ccc3[nH]nc(S(=O)(=O)c4cccc5ccccc45)c3c2)C1

>  <standard_type>  (219) 
Ki

>  <standard_relation>  (219) 
=

>  <standard_value>  (219) 
274.0

>  <standard_units>  (219) 
nM

>  <target_pref_name>  (219) 
Serotonin 2b (5-HT2b) receptor

>  <target_chembl_id>  (219) 
CHEMBL1833

>  <target_organism>  (219) 
Homo sapiens

>  <pchembl_median>  (219) 
6.32

$$$$
CHEMBL598443
     RDKit          2D

 27 31  0  0  0  0  0  0  0  0999 V2000
   -5.1197  -11.2919    0.0000 N   0  0  0  0  0  0  0  0  0  0  0  0
   -5.4316   -9.8247    0.0000 C   0  0  0  0  0  0  0  0  0  0  0  0
   -6.6896   -9.0077    0.0000 C   0  0  0  0  0  0  0  0  0  0  0  0
   -5.8727   -7.7497    0.0000 N   0  0  0  0  0  0  0  0  0  0  0  0
   -6.1845   -6.2825    0.0000 C   0  0  0  0  0  0  0  0  0  0  0  0
   -7.6111   -5.8190    0.0000 C   0  0  0  0  0  0  0  0  0  0  0  0
   -7.9230   -4.3518    0.0000 C   0  0  0  0  0  0  0  0  0  0  0  0
   -6.8083   -3.3481    0.0000 C   0  0  0  0  0  0  0  0  0  0  0  0
   -6.8083   -1.8481    0.0000 N   0  0  0  0  0  0  0  0  0  0  0  0
   -5.3817   -1.3846    0.0000 N   0  0  0  0  0  0  0  0  0  0  0  0
   -4.5000   -2.5981    0.0000 C   0  0  0  0  0  0  0  0  0  0  0  0
   -3.0000   -2.5981    0.0000 S   0  0  0  0  0  0  0  0  0  0  0  0
   -3.0000   -4.0981    0.0000 O   0  0  0  0  0  0  0  0  0  0  0  0
   -3.0000   -1.0981    0.0000 O   0  0  0  0  0  0  0  0  0  0  0  0
   -1.5000   -2.5981    0.0000 C   0  0  0  0  0  0  0  0  0  0  0  0
   -0.7500   -3.8971    0.0000 C   0  0  0  0  0  0  0  0  0  0  0  0
    0.7500   -3.8971    0.0000 C   0  0  0  0  0  0  0  0  0  0  0  0
    1.5000   -2.5981    0.0000 C   0  0  0  0  0  0  0  0  0  0  0  0
    0.7500   -1.2990    0.0000 C   0  0  0  0  0  0  0  0  0  0  0  0
    1.5000    0.0000    0.0000 C   0  0  0  0  0  0  0  0  0  0  0  0
    0.7500    1.2990    0.0000 C   0  0  0  0  0  0  0  0  0  0  0  0
   -0.7500    1.2990    0.0000 C   0  0  0  0  0  0  0  0  0  0  0  0
   -1.5000    0.0000    0.0000 C   0  0  0  0  0  0  0  0  0  0  0  0
   -0.7500   -1.2990    0.0000 C   0  0  0  0  0  0  0  0  0  0  0  0
   -5.3817   -3.8116    0.0000 C   0  0  0  0  0  0  0  0  0  0  0  0
   -5.0698   -5.2788    0.0000 C   0  0  0  0  0  0  0  0  0  0  0  0
   -4.6147   -8.5667    0.0000 C   0  0  0  0  0  0  0  0  0  0  0  0
  1  2  1  0
  2  3  1  0
  3  4  1  0
  4  5  1  0
  5  6  2  0
  6  7  1  0
  7  8  2  0
  8  9  1  0
  9 10  1  0
 10 11  2  0
 11 12  1  0
 12 13  2  0
 12 14  2  0
 12 15  1  0
 15 16  2  0
 16 17  1  0
 17 18  2  0
 18 19  1  0
 19 20  2  0
 20 21  1  0
 21 22  2  0
 22 23  1  0
 23 24  2  0
 11 25  1  0
 25 26  2  0
  4 27  1  0
 27  2  1  0
 26  5  1  0
 25  8  1  0
 24 15  1  0
 24 19  1  0
M  END
>  <assay_chembl_id>  (220) 
CHEMBL1073456

>  <assay_description>  (220) 
Displacement of [3H]5HT from human 5HT2B receptor expressed in CHO cells by scintillation counting

>  <parent_molecule_chembl_id>  (220) 
CHEMBL598443

>  <canonical_smiles>  (220) 
NC1CN(c2ccc3[nH]nc(S(=O)(=O)c4cccc5ccccc45)c3c2)C1

>  <standard_type>  (220) 
Ki

>  <standard_relation>  (220) 
=

>  <standard_value>  (220) 
97.9

>  <standard_units>  (220) 
nM

>  <target_pref_name>  (220) 
Serotonin 2b (5-HT2b) receptor

>  <target_chembl_id>  (220) 
CHEMBL1833

>  <target_organism>  (220) 
Homo sapiens

>  <pchembl_median>  (220) 
7.62

$$$$
CHEMBL598444
     RDKit          2D

 30 34  0  0  0  0  0  0  0  0999 V2000
   -8.2282  -11.6906    0.0000 C   0  0  0  0  0  0  0  0  0  0  0  0
   -6.7365  -11.5338    0.0000 N   0  0  0  0  0  0  0  0  0  0  0  0
   -5.8548  -12.7473    0.0000 C   0  0  0  0  0  0  0  0  0  0  0  0
   -6.1264  -10.1635    0.0000 C   0  0  0  0  0  0  0  0  0  0  0  0
   -4.6591   -9.8516    0.0000 C   0  0  0  0  0  0  0  0  0  0  0  0
   -4.5023   -8.3598    0.0000 C   0  0  0  0  0  0  0  0  0  0  0  0
   -5.8727   -7.7497    0.0000 N   0  0  0  0  0  0  0  0  0  0  0  0
   -6.1845   -6.2825    0.0000 C   0  0  0  0  0  0  0  0  0  0  0  0
   -7.6111   -5.8190    0.0000 C   0  0  0  0  0  0  0  0  0  0  0  0
   -7.9230   -4.3518    0.0000 C   0  0  0  0  0  0  0  0  0  0  0  0
   -6.8083   -3.3481    0.0000 C   0  0  0  0  0  0  0  0  0  0  0  0
   -6.8083   -1.8481    0.0000 N   0  0  0  0  0  0  0  0  0  0  0  0
   -5.3817   -1.3846    0.0000 N   0  0  0  0  0  0  0  0  0  0  0  0
   -4.5000   -2.5981    0.0000 C   0  0  0  0  0  0  0  0  0  0  0  0
   -3.0000   -2.5981    0.0000 S   0  0  0  0  0  0  0  0  0  0  0  0
   -3.0000   -4.0981    0.0000 O   0  0  0  0  0  0  0  0  0  0  0  0
   -3.0000   -1.0981    0.0000 O   0  0  0  0  0  0  0  0  0  0  0  0
   -1.5000   -2.5981    0.0000 C   0  0  0  0  0  0  0  0  0  0  0  0
   -0.7500   -3.8971    0.0000 C   0  0  0  0  0  0  0  0  0  0  0  0
    0.7500   -3.8971    0.0000 C   0  0  0  0  0  0  0  0  0  0  0  0
    1.5000   -2.5981    0.0000 C   0  0  0  0  0  0  0  0  0  0  0  0
    0.7500   -1.2990    0.0000 C   0  0  0  0  0  0  0  0  0  0  0  0
    1.5000    0.0000    0.0000 C   0  0  0  0  0  0  0  0  0  0  0  0
    0.7500    1.2990    0.0000 C   0  0  0  0  0  0  0  0  0  0  0  0
   -0.7500    1.2990    0.0000 C   0  0  0  0  0  0  0  0  0  0  0  0
   -1.5000    0.0000    0.0000 C   0  0  0  0  0  0  0  0  0  0  0  0
   -0.7500   -1.2990    0.0000 C   0  0  0  0  0  0  0  0  0  0  0  0
   -5.3817   -3.8116    0.0000 C   0  0  0  0  0  0  0  0  0  0  0  0
   -5.0698   -5.2788    0.0000 C   0  0  0  0  0  0  0  0  0  0  0  0
   -6.8764   -8.8645    0.0000 C   0  0  0  0  0  0  0  0  0  0  0  0
  1  2  1  0
  2  3  1  0
  4  2  1  1
  4  5  1  0
  5  6  1  0
  6  7  1  0
  7  8  1  0
  8  9  2  0
  9 10  1  0
 10 11  2  0
 11 12  1  0
 12 13  1  0
 13 14  2  0
 14 15  1  0
 15 16  2  0
 15 17  2  0
 15 18  1  0
 18 19  2  0
 19 20  1  0
 20 21  2  0
 21 22  1  0
 22 23  2  0
 23 24  1  0
 24 25  2  0
 25 26  1  0
 26 27  2  0
 14 28  1  0
 28 29  2  0
  7 30  1  0
 30  4  1  0
 29  8  1  0
 28 11  1  0
 27 18  1  0
 27 22  1  0
M  END
>  <assay_chembl_id>  (221) 
CHEMBL1073456

>  <assay_description>  (221) 
Displacement of [3H]5HT from human 5HT2B receptor expressed in CHO cells by scintillation counting

>  <parent_molecule_chembl_id>  (221) 
CHEMBL598444

>  <canonical_smiles>  (221) 
CN(C)[C@@H]1CCN(c2ccc3[nH]nc(S(=O)(=O)c4cccc5ccccc45)c3c2)C1

>  <standard_type>  (221) 
Ki

>  <standard_relation>  (221) 
=

>  <standard_value>  (221) 
423.0

>  <standard_units>  (221) 
nM

>  <target_pref_name>  (221) 
Serotonin 2b (5-HT2b) receptor

>  <target_chembl_id>  (221) 
CHEMBL1833

>  <target_organism>  (221) 
Homo sapiens

>  <pchembl_median>  (221) 
7.32

$$$$
CHEMBL597009
     RDKit          2D

 30 34  0  0  0  0  0  0  0  0999 V2000
   -8.2282  -11.6906    0.0000 C   0  0  0  0  0  0  0  0  0  0  0  0
   -6.7365  -11.5338    0.0000 N   0  0  0  0  0  0  0  0  0  0  0  0
   -5.8548  -12.7473    0.0000 C   0  0  0  0  0  0  0  0  0  0  0  0
   -6.1264  -10.1635    0.0000 C   0  0  0  0  0  0  0  0  0  0  0  0
   -4.6591   -9.8516    0.0000 C   0  0  0  0  0  0  0  0  0  0  0  0
   -4.5023   -8.3598    0.0000 C   0  0  0  0  0  0  0  0  0  0  0  0
   -5.8727   -7.7497    0.0000 N   0  0  0  0  0  0  0  0  0  0  0  0
   -6.1845   -6.2825    0.0000 C   0  0  0  0  0  0  0  0  0  0  0  0
   -7.6111   -5.8190    0.0000 C   0  0  0  0  0  0  0  0  0  0  0  0
   -7.9230   -4.3518    0.0000 C   0  0  0  0  0  0  0  0  0  0  0  0
   -6.8083   -3.3481    0.0000 C   0  0  0  0  0  0  0  0  0  0  0  0
   -6.8083   -1.8481    0.0000 N   0  0  0  0  0  0  0  0  0  0  0  0
   -5.3817   -1.3846    0.0000 N   0  0  0  0  0  0  0  0  0  0  0  0
   -4.5000   -2.5981    0.0000 C   0  0  0  0  0  0  0  0  0  0  0  0
   -3.0000   -2.5981    0.0000 S   0  0  0  0  0  0  0  0  0  0  0  0
   -3.0000   -4.0981    0.0000 O   0  0  0  0  0  0  0  0  0  0  0  0
   -3.0000   -1.0981    0.0000 O   0  0  0  0  0  0  0  0  0  0  0  0
   -1.5000   -2.5981    0.0000 C   0  0  0  0  0  0  0  0  0  0  0  0
   -0.7500   -3.8971    0.0000 C   0  0  0  0  0  0  0  0  0  0  0  0
    0.7500   -3.8971    0.0000 C   0  0  0  0  0  0  0  0  0  0  0  0
    1.5000   -2.5981    0.0000 C   0  0  0  0  0  0  0  0  0  0  0  0
    0.7500   -1.2990    0.0000 C   0  0  0  0  0  0  0  0  0  0  0  0
    1.5000    0.0000    0.0000 C   0  0  0  0  0  0  0  0  0  0  0  0
    0.7500    1.2990    0.0000 C   0  0  0  0  0  0  0  0  0  0  0  0
   -0.7500    1.2990    0.0000 C   0  0  0  0  0  0  0  0  0  0  0  0
   -1.5000    0.0000    0.0000 C   0  0  0  0  0  0  0  0  0  0  0  0
   -0.7500   -1.2990    0.0000 C   0  0  0  0  0  0  0  0  0  0  0  0
   -5.3817   -3.8116    0.0000 C   0  0  0  0  0  0  0  0  0  0  0  0
   -5.0698   -5.2788    0.0000 C   0  0  0  0  0  0  0  0  0  0  0  0
   -6.8764   -8.8645    0.0000 C   0  0  0  0  0  0  0  0  0  0  0  0
  1  2  1  0
  2  3  1  0
  4  2  1  6
  4  5  1  0
  5  6  1  0
  6  7  1  0
  7  8  1  0
  8  9  2  0
  9 10  1  0
 10 11  2  0
 11 12  1  0
 12 13  1  0
 13 14  2  0
 14 15  1  0
 15 16  2  0
 15 17  2  0
 15 18  1  0
 18 19  2  0
 19 20  1  0
 20 21  2  0
 21 22  1  0
 22 23  2  0
 23 24  1  0
 24 25  2  0
 25 26  1  0
 26 27  2  0
 14 28  1  0
 28 29  2  0
  7 30  1  0
 30  4  1  0
 29  8  1  0
 28 11  1  0
 27 18  1  0
 27 22  1  0
M  END
>  <assay_chembl_id>  (222) 
CHEMBL1073456

>  <assay_description>  (222) 
Displacement of [3H]5HT from human 5HT2B receptor expressed in CHO cells by scintillation counting

>  <parent_molecule_chembl_id>  (222) 
CHEMBL597009

>  <canonical_smiles>  (222) 
CN(C)[C@H]1CCN(c2ccc3[nH]nc(S(=O)(=O)c4cccc5ccccc45)c3c2)C1

>  <standard_type>  (222) 
Ki

>  <standard_relation>  (222) 
=

>  <standard_value>  (222) 
583.0

>  <standard_units>  (222) 
nM

>  <target_pref_name>  (222) 
Serotonin 2b (5-HT2b) receptor

>  <target_chembl_id>  (222) 
CHEMBL1833

>  <target_organism>  (222) 
Homo sapiens

>  <pchembl_median>  (222) 
5.76

$$$$
CHEMBL599263
     RDKit          2D

 29 33  0  0  0  0  0  0  0  0999 V2000
   -8.0218   -0.9664    0.0000 C   0  0  0  0  0  0  0  0  0  0  0  0
   -6.8083   -1.8481    0.0000 N   0  0  0  0  0  0  0  0  0  0  0  0
   -5.3817   -1.3846    0.0000 N   0  0  0  0  0  0  0  0  0  0  0  0
   -4.5000   -2.5981    0.0000 C   0  0  0  0  0  0  0  0  0  0  0  0
   -3.0000   -2.5981    0.0000 S   0  0  0  0  0  0  0  0  0  0  0  0
   -3.0000   -4.0981    0.0000 O   0  0  0  0  0  0  0  0  0  0  0  0
   -3.0000   -1.0981    0.0000 O   0  0  0  0  0  0  0  0  0  0  0  0
   -1.5000   -2.5981    0.0000 C   0  0  0  0  0  0  0  0  0  0  0  0
   -0.7500   -3.8971    0.0000 C   0  0  0  0  0  0  0  0  0  0  0  0
    0.7500   -3.8971    0.0000 C   0  0  0  0  0  0  0  0  0  0  0  0
    1.5000   -2.5981    0.0000 C   0  0  0  0  0  0  0  0  0  0  0  0
    0.7500   -1.2990    0.0000 C   0  0  0  0  0  0  0  0  0  0  0  0
    1.5000    0.0000    0.0000 C   0  0  0  0  0  0  0  0  0  0  0  0
    0.7500    1.2990    0.0000 C   0  0  0  0  0  0  0  0  0  0  0  0
   -0.7500    1.2990    0.0000 C   0  0  0  0  0  0  0  0  0  0  0  0
   -1.5000    0.0000    0.0000 C   0  0  0  0  0  0  0  0  0  0  0  0
   -0.7500   -1.2990    0.0000 C   0  0  0  0  0  0  0  0  0  0  0  0
   -5.3817   -3.8116    0.0000 C   0  0  0  0  0  0  0  0  0  0  0  0
   -5.0698   -5.2788    0.0000 C   0  0  0  0  0  0  0  0  0  0  0  0
   -6.1845   -6.2825    0.0000 C   0  0  0  0  0  0  0  0  0  0  0  0
   -5.8727   -7.7497    0.0000 N   0  0  0  0  0  0  0  0  0  0  0  0
   -4.5023   -8.3598    0.0000 C   0  0  0  0  0  0  0  0  0  0  0  0
   -4.6591   -9.8516    0.0000 C   0  0  0  0  0  0  0  0  0  0  0  0
   -6.1264  -10.1635    0.0000 C   0  0  0  0  0  0  0  0  0  0  0  0
   -6.7365  -11.5338    0.0000 N   0  0  0  0  0  0  0  0  0  0  0  0
   -6.8764   -8.8645    0.0000 C   0  0  0  0  0  0  0  0  0  0  0  0
   -7.6111   -5.8190    0.0000 C   0  0  0  0  0  0  0  0  0  0  0  0
   -7.9230   -4.3518    0.0000 C   0  0  0  0  0  0  0  0  0  0  0  0
   -6.8083   -3.3481    0.0000 C   0  0  0  0  0  0  0  0  0  0  0  0
  1  2  1  0
  2  3  1  0
  3  4  2  0
  4  5  1  0
  5  6  2  0
  5  7  2  0
  5  8  1  0
  8  9  2  0
  9 10  1  0
 10 11  2  0
 11 12  1  0
 12 13  2  0
 13 14  1  0
 14 15  2  0
 15 16  1  0
 16 17  2  0
  4 18  1  0
 18 19  2  0
 19 20  1  0
 20 21  1  0
 21 22  1  0
 22 23  1  0
 23 24  1  0
 24 25  1  1
 24 26  1  0
 20 27  2  0
 27 28  1  0
 28 29  2  0
 29  2  1  0
 17  8  1  0
 29 18  1  0
 17 12  1  0
 26 21  1  0
M  END
>  <assay_chembl_id>  (223) 
CHEMBL1073456

>  <assay_description>  (223) 
Displacement of [3H]5HT from human 5HT2B receptor expressed in CHO cells by scintillation counting

>  <parent_molecule_chembl_id>  (223) 
CHEMBL599263

>  <canonical_smiles>  (223) 
Cn1nc(S(=O)(=O)c2cccc3ccccc23)c2cc(N3CC[C@@H](N)C3)ccc21

>  <standard_type>  (223) 
Ki

>  <standard_relation>  (223) 
=

>  <standard_value>  (223) 
185.0

>  <standard_units>  (223) 
nM

>  <target_pref_name>  (223) 
Serotonin 2b (5-HT2b) receptor

>  <target_chembl_id>  (223) 
CHEMBL1833

>  <target_organism>  (223) 
Homo sapiens

>  <pchembl_median>  (223) 
7.39

$$$$
CHEMBL599466
     RDKit          2D

 31 35  0  0  0  0  0  0  0  0999 V2000
   -7.8650    0.5254    0.0000 C   0  0  0  0  0  0  0  0  0  0  0  0
   -8.0218   -0.9664    0.0000 C   0  0  0  0  0  0  0  0  0  0  0  0
   -9.3921   -1.5765    0.0000 C   0  0  0  0  0  0  0  0  0  0  0  0
   -6.8083   -1.8481    0.0000 N   0  0  0  0  0  0  0  0  0  0  0  0
   -5.3817   -1.3846    0.0000 N   0  0  0  0  0  0  0  0  0  0  0  0
   -4.5000   -2.5981    0.0000 C   0  0  0  0  0  0  0  0  0  0  0  0
   -3.0000   -2.5981    0.0000 S   0  0  0  0  0  0  0  0  0  0  0  0
   -3.0000   -4.0981    0.0000 O   0  0  0  0  0  0  0  0  0  0  0  0
   -3.0000   -1.0981    0.0000 O   0  0  0  0  0  0  0  0  0  0  0  0
   -1.5000   -2.5981    0.0000 C   0  0  0  0  0  0  0  0  0  0  0  0
   -0.7500   -3.8971    0.0000 C   0  0  0  0  0  0  0  0  0  0  0  0
    0.7500   -3.8971    0.0000 C   0  0  0  0  0  0  0  0  0  0  0  0
    1.5000   -2.5981    0.0000 C   0  0  0  0  0  0  0  0  0  0  0  0
    0.7500   -1.2990    0.0000 C   0  0  0  0  0  0  0  0  0  0  0  0
    1.5000    0.0000    0.0000 C   0  0  0  0  0  0  0  0  0  0  0  0
    0.7500    1.2990    0.0000 C   0  0  0  0  0  0  0  0  0  0  0  0
   -0.7500    1.2990    0.0000 C   0  0  0  0  0  0  0  0  0  0  0  0
   -1.5000    0.0000    0.0000 C   0  0  0  0  0  0  0  0  0  0  0  0
   -0.7500   -1.2990    0.0000 C   0  0  0  0  0  0  0  0  0  0  0  0
   -5.3817   -3.8116    0.0000 C   0  0  0  0  0  0  0  0  0  0  0  0
   -5.0698   -5.2788    0.0000 C   0  0  0  0  0  0  0  0  0  0  0  0
   -6.1845   -6.2825    0.0000 C   0  0  0  0  0  0  0  0  0  0  0  0
   -5.8727   -7.7497    0.0000 N   0  0  0  0  0  0  0  0  0  0  0  0
   -4.5023   -8.3598    0.0000 C   0  0  0  0  0  0  0  0  0  0  0  0
   -4.6591   -9.8516    0.0000 C   0  0  0  0  0  0  0  0  0  0  0  0
   -6.1264  -10.1635    0.0000 C   0  0  0  0  0  0  0  0  0  0  0  0
   -6.7365  -11.5338    0.0000 N   0  0  0  0  0  0  0  0  0  0  0  0
   -6.8764   -8.8645    0.0000 C   0  0  0  0  0  0  0  0  0  0  0  0
   -7.6111   -5.8190    0.0000 C   0  0  0  0  0  0  0  0  0  0  0  0
   -7.9230   -4.3518    0.0000 C   0  0  0  0  0  0  0  0  0  0  0  0
   -6.8083   -3.3481    0.0000 C   0  0  0  0  0  0  0  0  0  0  0  0
  1  2  1  0
  2  3  1  0
  2  4  1  0
  4  5  1  0
  5  6  2  0
  6  7  1  0
  7  8  2  0
  7  9  2  0
  7 10  1  0
 10 11  2  0
 11 12  1  0
 12 13  2  0
 13 14  1  0
 14 15  2  0
 15 16  1  0
 16 17  2  0
 17 18  1  0
 18 19  2  0
  6 20  1  0
 20 21  2  0
 21 22  1  0
 22 23  1  0
 23 24  1  0
 24 25  1  0
 25 26  1  0
 26 27  1  1
 26 28  1  0
 22 29  2  0
 29 30  1  0
 30 31  2  0
 31  4  1  0
 19 10  1  0
 31 20  1  0
 19 14  1  0
 28 23  1  0
M  END
>  <assay_chembl_id>  (224) 
CHEMBL1073456

>  <assay_description>  (224) 
Displacement of [3H]5HT from human 5HT2B receptor expressed in CHO cells by scintillation counting

>  <parent_molecule_chembl_id>  (224) 
CHEMBL599466

>  <canonical_smiles>  (224) 
CC(C)n1nc(S(=O)(=O)c2cccc3ccccc23)c2cc(N3CC[C@@H](N)C3)ccc21

>  <standard_type>  (224) 
Ki

>  <standard_relation>  (224) 
=

>  <standard_value>  (224) 
191.0

>  <standard_units>  (224) 
nM

>  <target_pref_name>  (224) 
Serotonin 2b (5-HT2b) receptor

>  <target_chembl_id>  (224) 
CHEMBL1833

>  <target_organism>  (224) 
Homo sapiens

>  <pchembl_median>  (224) 
7.13

$$$$
CHEMBL605971
     RDKit          2D

 29 33  0  0  0  0  0  0  0  0999 V2000
   -4.9182    0.0420    0.0000 C   0  0  0  0  0  0  0  0  0  0  0  0
   -5.3817   -1.3846    0.0000 N   0  0  0  0  0  0  0  0  0  0  0  0
   -6.8083   -1.8481    0.0000 N   0  0  0  0  0  0  0  0  0  0  0  0
   -6.8083   -3.3481    0.0000 C   0  0  0  0  0  0  0  0  0  0  0  0
   -7.9230   -4.3518    0.0000 C   0  0  0  0  0  0  0  0  0  0  0  0
   -7.6111   -5.8190    0.0000 C   0  0  0  0  0  0  0  0  0  0  0  0
   -6.1845   -6.2825    0.0000 C   0  0  0  0  0  0  0  0  0  0  0  0
   -5.8727   -7.7497    0.0000 N   0  0  0  0  0  0  0  0  0  0  0  0
   -4.5023   -8.3598    0.0000 C   0  0  0  0  0  0  0  0  0  0  0  0
   -4.6591   -9.8516    0.0000 C   0  0  0  0  0  0  0  0  0  0  0  0
   -6.1264  -10.1635    0.0000 C   0  0  0  0  0  0  0  0  0  0  0  0
   -6.7365  -11.5338    0.0000 N   0  0  0  0  0  0  0  0  0  0  0  0
   -6.8764   -8.8645    0.0000 C   0  0  0  0  0  0  0  0  0  0  0  0
   -5.0698   -5.2788    0.0000 C   0  0  0  0  0  0  0  0  0  0  0  0
   -5.3817   -3.8116    0.0000 C   0  0  0  0  0  0  0  0  0  0  0  0
   -4.5000   -2.5981    0.0000 C   0  0  0  0  0  0  0  0  0  0  0  0
   -3.0000   -2.5981    0.0000 S   0  0  0  0  0  0  0  0  0  0  0  0
   -3.0000   -4.0981    0.0000 O   0  0  0  0  0  0  0  0  0  0  0  0
   -3.0000   -1.0981    0.0000 O   0  0  0  0  0  0  0  0  0  0  0  0
   -1.5000   -2.5981    0.0000 C   0  0  0  0  0  0  0  0  0  0  0  0
   -0.7500   -3.8971    0.0000 C   0  0  0  0  0  0  0  0  0  0  0  0
    0.7500   -3.8971    0.0000 C   0  0  0  0  0  0  0  0  0  0  0  0
    1.5000   -2.5981    0.0000 C   0  0  0  0  0  0  0  0  0  0  0  0
    0.7500   -1.2990    0.0000 C   0  0  0  0  0  0  0  0  0  0  0  0
    1.5000    0.0000    0.0000 C   0  0  0  0  0  0  0  0  0  0  0  0
    0.7500    1.2990    0.0000 C   0  0  0  0  0  0  0  0  0  0  0  0
   -0.7500    1.2990    0.0000 C   0  0  0  0  0  0  0  0  0  0  0  0
   -1.5000    0.0000    0.0000 C   0  0  0  0  0  0  0  0  0  0  0  0
   -0.7500   -1.2990    0.0000 C   0  0  0  0  0  0  0  0  0  0  0  0
  1  2  1  0
  2  3  1  0
  3  4  2  0
  4  5  1  0
  5  6  2  0
  6  7  1  0
  7  8  1  0
  8  9  1  0
  9 10  1  0
 10 11  1  0
 11 12  1  1
 11 13  1  0
  7 14  2  0
 14 15  1  0
 15 16  2  0
 16 17  1  0
 17 18  2  0
 17 19  2  0
 17 20  1  0
 20 21  2  0
 21 22  1  0
 22 23  2  0
 23 24  1  0
 24 25  2  0
 25 26  1  0
 26 27  2  0
 27 28  1  0
 28 29  2  0
 16  2  1  0
 29 20  1  0
 15  4  1  0
 29 24  1  0
 13  8  1  0
M  END
>  <assay_chembl_id>  (225) 
CHEMBL1073456

>  <assay_description>  (225) 
Displacement of [3H]5HT from human 5HT2B receptor expressed in CHO cells by scintillation counting

>  <parent_molecule_chembl_id>  (225) 
CHEMBL605971

>  <canonical_smiles>  (225) 
Cn1nc2ccc(N3CC[C@@H](N)C3)cc2c1S(=O)(=O)c1cccc2ccccc12

>  <standard_type>  (225) 
Ki

>  <standard_relation>  (225) 
=

>  <standard_value>  (225) 
455.0

>  <standard_units>  (225) 
nM

>  <target_pref_name>  (225) 
Serotonin 2b (5-HT2b) receptor

>  <target_chembl_id>  (225) 
CHEMBL1833

>  <target_organism>  (225) 
Homo sapiens

>  <pchembl_median>  (225) 
5.8

$$$$
CHEMBL591940
     RDKit          2D

 32 36  0  0  0  0  0  0  0  0999 V2000
   -5.4583    2.5833    0.0000 C   0  0  0  0  0  0  0  0  0  0  0  0
   -5.9218    1.1568    0.0000 C   0  0  0  0  0  0  0  0  0  0  0  0
   -7.3891    0.8449    0.0000 C   0  0  0  0  0  0  0  0  0  0  0  0
   -4.9182    0.0420    0.0000 C   0  0  0  0  0  0  0  0  0  0  0  0
   -5.3817   -1.3846    0.0000 N   0  0  0  0  0  0  0  0  0  0  0  0
   -6.8083   -1.8481    0.0000 N   0  0  0  0  0  0  0  0  0  0  0  0
   -6.8083   -3.3481    0.0000 C   0  0  0  0  0  0  0  0  0  0  0  0
   -7.9230   -4.3518    0.0000 C   0  0  0  0  0  0  0  0  0  0  0  0
   -7.6111   -5.8190    0.0000 C   0  0  0  0  0  0  0  0  0  0  0  0
   -6.1845   -6.2825    0.0000 C   0  0  0  0  0  0  0  0  0  0  0  0
   -5.8727   -7.7497    0.0000 N   0  0  0  0  0  0  0  0  0  0  0  0
   -4.5023   -8.3598    0.0000 C   0  0  0  0  0  0  0  0  0  0  0  0
   -4.6591   -9.8516    0.0000 C   0  0  0  0  0  0  0  0  0  0  0  0
   -6.1264  -10.1635    0.0000 C   0  0  0  0  0  0  0  0  0  0  0  0
   -6.7365  -11.5338    0.0000 N   0  0  0  0  0  0  0  0  0  0  0  0
   -6.8764   -8.8645    0.0000 C   0  0  0  0  0  0  0  0  0  0  0  0
   -5.0698   -5.2788    0.0000 C   0  0  0  0  0  0  0  0  0  0  0  0
   -5.3817   -3.8116    0.0000 C   0  0  0  0  0  0  0  0  0  0  0  0
   -4.5000   -2.5981    0.0000 C   0  0  0  0  0  0  0  0  0  0  0  0
   -3.0000   -2.5981    0.0000 S   0  0  0  0  0  0  0  0  0  0  0  0
   -3.0000   -4.0981    0.0000 O   0  0  0  0  0  0  0  0  0  0  0  0
   -3.0000   -1.0981    0.0000 O   0  0  0  0  0  0  0  0  0  0  0  0
   -1.5000   -2.5981    0.0000 C   0  0  0  0  0  0  0  0  0  0  0  0
   -0.7500   -3.8971    0.0000 C   0  0  0  0  0  0  0  0  0  0  0  0
    0.7500   -3.8971    0.0000 C   0  0  0  0  0  0  0  0  0  0  0  0
    1.5000   -2.5981    0.0000 C   0  0  0  0  0  0  0  0  0  0  0  0
    0.7500   -1.2990    0.0000 C   0  0  0  0  0  0  0  0  0  0  0  0
    1.5000    0.0000    0.0000 C   0  0  0  0  0  0  0  0  0  0  0  0
    0.7500    1.2990    0.0000 C   0  0  0  0  0  0  0  0  0  0  0  0
   -0.7500    1.2990    0.0000 C   0  0  0  0  0  0  0  0  0  0  0  0
   -1.5000    0.0000    0.0000 C   0  0  0  0  0  0  0  0  0  0  0  0
   -0.7500   -1.2990    0.0000 C   0  0  0  0  0  0  0  0  0  0  0  0
  1  2  1  0
  2  3  1  0
  2  4  1  0
  4  5  1  0
  5  6  1  0
  6  7  2  0
  7  8  1  0
  8  9  2  0
  9 10  1  0
 10 11  1  0
 11 12  1  0
 12 13  1  0
 13 14  1  0
 14 15  1  1
 14 16  1  0
 10 17  2  0
 17 18  1  0
 18 19  2  0
 19 20  1  0
 20 21  2  0
 20 22  2  0
 20 23  1  0
 23 24  2  0
 24 25  1  0
 25 26  2  0
 26 27  1  0
 27 28  2  0
 28 29  1  0
 29 30  2  0
 30 31  1  0
 31 32  2  0
 19  5  1  0
 32 23  1  0
 18  7  1  0
 32 27  1  0
 16 11  1  0
M  END
>  <assay_chembl_id>  (226) 
CHEMBL1073456

>  <assay_description>  (226) 
Displacement of [3H]5HT from human 5HT2B receptor expressed in CHO cells by scintillation counting

>  <parent_molecule_chembl_id>  (226) 
CHEMBL591940

>  <canonical_smiles>  (226) 
CC(C)Cn1nc2ccc(N3CC[C@@H](N)C3)cc2c1S(=O)(=O)c1cccc2ccccc12

>  <standard_type>  (226) 
Ki

>  <standard_relation>  (226) 
=

>  <standard_value>  (226) 
260.0

>  <standard_units>  (226) 
nM

>  <target_pref_name>  (226) 
Serotonin 2b (5-HT2b) receptor

>  <target_chembl_id>  (226) 
CHEMBL1833

>  <target_organism>  (226) 
Homo sapiens

>  <pchembl_median>  (226) 
6.0

$$$$
CHEMBL1224031
     RDKit          2D

 23 26  0  0  0  0  0  0  0  0999 V2000
   -3.7701   -0.4390    0.0000 O   0  0  0  0  0  0  0  0  0  0  0  0
   -4.0819   -1.9062    0.0000 C   0  0  0  0  0  0  0  0  0  0  0  0
   -5.5085   -2.3698    0.0000 N   0  0  0  0  0  0  0  0  0  0  0  0
   -6.6232   -1.3661    0.0000 C   0  0  0  0  0  0  0  0  0  0  0  0
   -6.3114    0.1011    0.0000 C   0  0  0  0  0  0  0  0  0  0  0  0
   -7.4261    1.1048    0.0000 C   0  0  0  0  0  0  0  0  0  0  0  0
   -8.8527    0.6413    0.0000 C   0  0  0  0  0  0  0  0  0  0  0  0
   -9.1645   -0.8259    0.0000 C   0  0  0  0  0  0  0  0  0  0  0  0
   -8.0498   -1.8296    0.0000 C   0  0  0  0  0  0  0  0  0  0  0  0
   -2.9672   -2.9099    0.0000 N   0  0  0  0  0  0  0  0  0  0  0  0
   -3.1240   -4.4017    0.0000 O   0  0  0  0  0  0  0  0  0  0  0  0
   -1.7537   -5.0118    0.0000 C   0  0  0  0  0  0  0  0  0  0  0  0
   -0.7500   -3.8971    0.0000 C   0  0  0  0  0  0  0  0  0  0  0  0
    0.7500   -3.8971    0.0000 C   0  0  0  0  0  0  0  0  0  0  0  0
    1.5000   -2.5981    0.0000 S   0  0  0  0  0  0  0  0  0  0  0  0
    0.7500   -1.2990    0.0000 C   0  0  0  0  0  0  0  0  0  0  0  0
    1.5000    0.0000    0.0000 C   0  0  0  0  0  0  0  0  0  0  0  0
    0.7500    1.2990    0.0000 C   0  0  0  0  0  0  0  0  0  0  0  0
   -0.7500    1.2990    0.0000 C   0  0  0  0  0  0  0  0  0  0  0  0
   -1.5000    2.5981    0.0000 F   0  0  0  0  0  0  0  0  0  0  0  0
   -1.5000    0.0000    0.0000 C   0  0  0  0  0  0  0  0  0  0  0  0
   -0.7500   -1.2990    0.0000 C   0  0  0  0  0  0  0  0  0  0  0  0
   -1.5000   -2.5981    0.0000 C   0  0  0  0  0  0  0  0  0  0  0  0
  1  2  2  0
  2  3  1  0
  3  4  1  0
  4  5  2  0
  5  6  1  0
  6  7  2  0
  7  8  1  0
  8  9  2  0
  2 10  1  0
 10 11  1  0
 11 12  1  0
 12 13  1  0
 13 14  1  0
 14 15  1  0
 15 16  1  0
 16 17  2  0
 17 18  1  0
 18 19  2  0
 19 20  1  0
 19 21  1  0
 21 22  2  0
 22 23  1  0
  9  4  1  0
 23 10  1  0
 23 13  1  0
 22 16  1  0
M  END
>  <assay_chembl_id>  (227) 
CHEMBL1225550

>  <assay_description>  (227) 
Displacement of [3H]LSD from human 5HT2B receptor

>  <parent_molecule_chembl_id>  (227) 
CHEMBL1224031

>  <canonical_smiles>  (227) 
O=C(Nc1ccccc1)N1OCC2CSc3ccc(F)cc3C21

>  <standard_type>  (227) 
Ki

>  <standard_relation>  (227) 
=

>  <standard_value>  (227) 
223.0

>  <standard_units>  (227) 
nM

>  <target_pref_name>  (227) 
Serotonin 2b (5-HT2b) receptor

>  <target_chembl_id>  (227) 
CHEMBL1833

>  <target_organism>  (227) 
Homo sapiens

>  <pchembl_median>  (227) 
5.24

$$$$
CHEMBL1224032
     RDKit          2D

 20 22  0  0  0  0  0  0  0  0999 V2000
   -8.0498   -1.8296    0.0000 C   0  0  0  0  0  0  0  0  0  0  0  0
   -6.6232   -1.3661    0.0000 C   0  0  0  0  0  0  0  0  0  0  0  0
   -6.3114    0.1011    0.0000 C   0  0  0  0  0  0  0  0  0  0  0  0
   -5.5085   -2.3698    0.0000 N   0  0  0  0  0  0  0  0  0  0  0  0
   -4.0819   -1.9062    0.0000 C   0  0  0  0  0  0  0  0  0  0  0  0
   -3.7701   -0.4390    0.0000 O   0  0  0  0  0  0  0  0  0  0  0  0
   -2.9672   -2.9099    0.0000 N   0  0  0  0  0  0  0  0  0  0  0  0
   -3.1240   -4.4017    0.0000 O   0  0  0  0  0  0  0  0  0  0  0  0
   -1.7537   -5.0118    0.0000 C   0  0  0  0  0  0  0  0  0  0  0  0
   -0.7500   -3.8971    0.0000 C   0  0  0  0  0  0  0  0  0  0  0  0
    0.7500   -3.8971    0.0000 C   0  0  0  0  0  0  0  0  0  0  0  0
    1.5000   -2.5981    0.0000 S   0  0  0  0  0  0  0  0  0  0  0  0
    0.7500   -1.2990    0.0000 C   0  0  0  0  0  0  0  0  0  0  0  0
    1.5000    0.0000    0.0000 C   0  0  0  0  0  0  0  0  0  0  0  0
    0.7500    1.2990    0.0000 C   0  0  0  0  0  0  0  0  0  0  0  0
   -0.7500    1.2990    0.0000 C   0  0  0  0  0  0  0  0  0  0  0  0
   -1.5000    2.5981    0.0000 F   0  0  0  0  0  0  0  0  0  0  0  0
   -1.5000    0.0000    0.0000 C   0  0  0  0  0  0  0  0  0  0  0  0
   -0.7500   -1.2990    0.0000 C   0  0  0  0  0  0  0  0  0  0  0  0
   -1.5000   -2.5981    0.0000 C   0  0  0  0  0  0  0  0  0  0  0  0
  1  2  1  0
  2  3  1  0
  2  4  1  0
  4  5  1  0
  5  6  2  0
  5  7  1  0
  7  8  1  0
  8  9  1  0
  9 10  1  0
 10 11  1  0
 11 12  1  0
 12 13  1  0
 13 14  2  0
 14 15  1  0
 15 16  2  0
 16 17  1  0
 16 18  1  0
 18 19  2  0
 19 20  1  0
 20  7  1  0
 20 10  1  0
 19 13  1  0
M  END
>  <assay_chembl_id>  (228) 
CHEMBL1225550

>  <assay_description>  (228) 
Displacement of [3H]LSD from human 5HT2B receptor

>  <parent_molecule_chembl_id>  (228) 
CHEMBL1224032

>  <canonical_smiles>  (228) 
CC(C)NC(=O)N1OCC2CSc3ccc(F)cc3C21

>  <standard_type>  (228) 
Ki

>  <standard_relation>  (228) 
=

>  <standard_value>  (228) 
569.0

>  <standard_units>  (228) 
nM

>  <target_pref_name>  (228) 
Serotonin 2b (5-HT2b) receptor

>  <target_chembl_id>  (228) 
CHEMBL1833

>  <target_organism>  (228) 
Homo sapiens

>  <pchembl_median>  (228) 
5.46

$$$$
CHEMBL1224033
     RDKit          2D

 20 22  0  0  0  0  0  0  0  0999 V2000
   -9.1645   -0.8259    0.0000 C   0  0  0  0  0  0  0  0  0  0  0  0
   -8.0498   -1.8296    0.0000 C   0  0  0  0  0  0  0  0  0  0  0  0
   -6.6232   -1.3661    0.0000 C   0  0  0  0  0  0  0  0  0  0  0  0
   -5.5085   -2.3698    0.0000 N   0  0  0  0  0  0  0  0  0  0  0  0
   -4.0819   -1.9062    0.0000 C   0  0  0  0  0  0  0  0  0  0  0  0
   -3.7701   -0.4390    0.0000 O   0  0  0  0  0  0  0  0  0  0  0  0
   -2.9672   -2.9099    0.0000 N   0  0  0  0  0  0  0  0  0  0  0  0
   -3.1240   -4.4017    0.0000 O   0  0  0  0  0  0  0  0  0  0  0  0
   -1.7537   -5.0118    0.0000 C   0  0  0  0  0  0  0  0  0  0  0  0
   -0.7500   -3.8971    0.0000 C   0  0  0  0  0  0  0  0  0  0  0  0
    0.7500   -3.8971    0.0000 C   0  0  0  0  0  0  0  0  0  0  0  0
    1.5000   -2.5981    0.0000 S   0  0  0  0  0  0  0  0  0  0  0  0
    0.7500   -1.2990    0.0000 C   0  0  0  0  0  0  0  0  0  0  0  0
    1.5000    0.0000    0.0000 C   0  0  0  0  0  0  0  0  0  0  0  0
    0.7500    1.2990    0.0000 C   0  0  0  0  0  0  0  0  0  0  0  0
   -0.7500    1.2990    0.0000 C   0  0  0  0  0  0  0  0  0  0  0  0
   -1.5000    2.5981    0.0000 F   0  0  0  0  0  0  0  0  0  0  0  0
   -1.5000    0.0000    0.0000 C   0  0  0  0  0  0  0  0  0  0  0  0
   -0.7500   -1.2990    0.0000 C   0  0  0  0  0  0  0  0  0  0  0  0
   -1.5000   -2.5981    0.0000 C   0  0  0  0  0  0  0  0  0  0  0  0
  1  2  1  0
  2  3  1  0
  3  4  1  0
  4  5  1  0
  5  6  2  0
  5  7  1  0
  7  8  1  0
  8  9  1  0
  9 10  1  0
 10 11  1  0
 11 12  1  0
 12 13  1  0
 13 14  2  0
 14 15  1  0
 15 16  2  0
 16 17  1  0
 16 18  1  0
 18 19  2  0
 19 20  1  0
 20  7  1  0
 20 10  1  0
 19 13  1  0
M  END
>  <assay_chembl_id>  (229) 
CHEMBL1225550

>  <assay_description>  (229) 
Displacement of [3H]LSD from human 5HT2B receptor

>  <parent_molecule_chembl_id>  (229) 
CHEMBL1224033

>  <canonical_smiles>  (229) 
CCCNC(=O)N1OCC2CSc3ccc(F)cc3C21

>  <standard_type>  (229) 
Ki

>  <standard_relation>  (229) 
=

>  <standard_value>  (229) 
384.0

>  <standard_units>  (229) 
nM

>  <target_pref_name>  (229) 
Serotonin 2b (5-HT2b) receptor

>  <target_chembl_id>  (229) 
CHEMBL1833

>  <target_organism>  (229) 
Homo sapiens

>  <pchembl_median>  (229) 
6.31

$$$$
CHEMBL1224034
     RDKit          2D

 23 26  0  0  0  0  0  0  0  0999 V2000
   -3.7701   -0.4390    0.0000 O   0  0  0  0  0  0  0  0  0  0  0  0
   -4.0819   -1.9062    0.0000 C   0  0  0  0  0  0  0  0  0  0  0  0
   -5.5085   -2.3698    0.0000 N   0  0  0  0  0  0  0  0  0  0  0  0
   -6.6232   -1.3661    0.0000 C   0  0  0  0  0  0  0  0  0  0  0  0
   -6.3114    0.1011    0.0000 C   0  0  0  0  0  0  0  0  0  0  0  0
   -7.4261    1.1048    0.0000 C   0  0  0  0  0  0  0  0  0  0  0  0
   -8.8527    0.6413    0.0000 C   0  0  0  0  0  0  0  0  0  0  0  0
   -9.1645   -0.8259    0.0000 C   0  0  0  0  0  0  0  0  0  0  0  0
   -8.0498   -1.8296    0.0000 C   0  0  0  0  0  0  0  0  0  0  0  0
   -2.9672   -2.9099    0.0000 N   0  0  0  0  0  0  0  0  0  0  0  0
   -3.1240   -4.4017    0.0000 O   0  0  0  0  0  0  0  0  0  0  0  0
   -1.7537   -5.0118    0.0000 C   0  0  0  0  0  0  0  0  0  0  0  0
   -0.7500   -3.8971    0.0000 C   0  0  0  0  0  0  0  0  0  0  0  0
    0.7500   -3.8971    0.0000 C   0  0  0  0  0  0  0  0  0  0  0  0
    1.5000   -2.5981    0.0000 S   0  0  0  0  0  0  0  0  0  0  0  0
    0.7500   -1.2990    0.0000 C   0  0  0  0  0  0  0  0  0  0  0  0
    1.5000    0.0000    0.0000 C   0  0  0  0  0  0  0  0  0  0  0  0
    0.7500    1.2990    0.0000 C   0  0  0  0  0  0  0  0  0  0  0  0
   -0.7500    1.2990    0.0000 C   0  0  0  0  0  0  0  0  0  0  0  0
   -1.5000    2.5981    0.0000 F   0  0  0  0  0  0  0  0  0  0  0  0
   -1.5000    0.0000    0.0000 C   0  0  0  0  0  0  0  0  0  0  0  0
   -0.7500   -1.2990    0.0000 C   0  0  0  0  0  0  0  0  0  0  0  0
   -1.5000   -2.5981    0.0000 C   0  0  0  0  0  0  0  0  0  0  0  0
  1  2  2  0
  2  3  1  0
  3  4  1  0
  4  5  1  0
  5  6  1  0
  6  7  1  0
  7  8  1  0
  8  9  1  0
  2 10  1  0
 10 11  1  0
 11 12  1  0
 12 13  1  0
 13 14  1  0
 14 15  1  0
 15 16  1  0
 16 17  2  0
 17 18  1  0
 18 19  2  0
 19 20  1  0
 19 21  1  0
 21 22  2  0
 22 23  1  0
  9  4  1  0
 23 10  1  0
 23 13  1  0
 22 16  1  0
M  END
>  <assay_chembl_id>  (230) 
CHEMBL1225550

>  <assay_description>  (230) 
Displacement of [3H]LSD from human 5HT2B receptor

>  <parent_molecule_chembl_id>  (230) 
CHEMBL1224034

>  <canonical_smiles>  (230) 
O=C(NC1CCCCC1)N1OCC2CSc3ccc(F)cc3C21

>  <standard_type>  (230) 
Ki

>  <standard_relation>  (230) 
=

>  <standard_value>  (230) 
42.0

>  <standard_units>  (230) 
nM

>  <target_pref_name>  (230) 
Serotonin 2b (5-HT2b) receptor

>  <target_chembl_id>  (230) 
CHEMBL1833

>  <target_organism>  (230) 
Homo sapiens

>  <pchembl_median>  (230) 
6.17

$$$$
CHEMBL1224035
     RDKit          2D

 21 23  0  0  0  0  0  0  0  0999 V2000
  -10.5911   -1.2894    0.0000 C   0  0  0  0  0  0  0  0  0  0  0  0
   -9.1645   -0.8259    0.0000 C   0  0  0  0  0  0  0  0  0  0  0  0
   -8.0498   -1.8296    0.0000 C   0  0  0  0  0  0  0  0  0  0  0  0
   -6.6232   -1.3661    0.0000 C   0  0  0  0  0  0  0  0  0  0  0  0
   -5.5085   -2.3698    0.0000 N   0  0  0  0  0  0  0  0  0  0  0  0
   -4.0819   -1.9062    0.0000 C   0  0  0  0  0  0  0  0  0  0  0  0
   -3.7701   -0.4390    0.0000 O   0  0  0  0  0  0  0  0  0  0  0  0
   -2.9672   -2.9099    0.0000 N   0  0  0  0  0  0  0  0  0  0  0  0
   -3.1240   -4.4017    0.0000 O   0  0  0  0  0  0  0  0  0  0  0  0
   -1.7537   -5.0118    0.0000 C   0  0  0  0  0  0  0  0  0  0  0  0
   -0.7500   -3.8971    0.0000 C   0  0  0  0  0  0  0  0  0  0  0  0
    0.7500   -3.8971    0.0000 C   0  0  0  0  0  0  0  0  0  0  0  0
    1.5000   -2.5981    0.0000 S   0  0  0  0  0  0  0  0  0  0  0  0
    0.7500   -1.2990    0.0000 C   0  0  0  0  0  0  0  0  0  0  0  0
    1.5000    0.0000    0.0000 C   0  0  0  0  0  0  0  0  0  0  0  0
    0.7500    1.2990    0.0000 C   0  0  0  0  0  0  0  0  0  0  0  0
   -0.7500    1.2990    0.0000 C   0  0  0  0  0  0  0  0  0  0  0  0
   -1.5000    2.5981    0.0000 F   0  0  0  0  0  0  0  0  0  0  0  0
   -1.5000    0.0000    0.0000 C   0  0  0  0  0  0  0  0  0  0  0  0
   -0.7500   -1.2990    0.0000 C   0  0  0  0  0  0  0  0  0  0  0  0
   -1.5000   -2.5981    0.0000 C   0  0  0  0  0  0  0  0  0  0  0  0
  1  2  1  0
  2  3  1  0
  3  4  1  0
  4  5  1  0
  5  6  1  0
  6  7  2  0
  6  8  1  0
  8  9  1  0
  9 10  1  0
 10 11  1  0
 11 12  1  0
 12 13  1  0
 13 14  1  0
 14 15  2  0
 15 16  1  0
 16 17  2  0
 17 18  1  0
 17 19  1  0
 19 20  2  0
 20 21  1  0
 21  8  1  0
 21 11  1  0
 20 14  1  0
M  END
>  <assay_chembl_id>  (231) 
CHEMBL1225550

>  <assay_description>  (231) 
Displacement of [3H]LSD from human 5HT2B receptor

>  <parent_molecule_chembl_id>  (231) 
CHEMBL1224035

>  <canonical_smiles>  (231) 
CCCCNC(=O)N1OCC2CSc3ccc(F)cc3C21

>  <standard_type>  (231) 
Ki

>  <standard_relation>  (231) 
=

>  <standard_value>  (231) 
489.0

>  <standard_units>  (231) 
nM

>  <target_pref_name>  (231) 
Serotonin 2b (5-HT2b) receptor

>  <target_chembl_id>  (231) 
CHEMBL1833

>  <target_organism>  (231) 
Homo sapiens

>  <pchembl_median>  (231) 
5.79

$$$$
CHEMBL1224036
     RDKit          2D

 22 25  0  0  0  0  0  0  0  0999 V2000
   -3.7701   -0.4390    0.0000 O   0  0  0  0  0  0  0  0  0  0  0  0
   -4.0819   -1.9062    0.0000 C   0  0  0  0  0  0  0  0  0  0  0  0
   -5.5085   -2.3698    0.0000 N   0  0  0  0  0  0  0  0  0  0  0  0
   -6.6232   -1.3661    0.0000 C   0  0  0  0  0  0  0  0  0  0  0  0
   -6.3114    0.1011    0.0000 C   0  0  0  0  0  0  0  0  0  0  0  0
   -7.4261    1.1048    0.0000 C   0  0  0  0  0  0  0  0  0  0  0  0
   -8.8527    0.6413    0.0000 C   0  0  0  0  0  0  0  0  0  0  0  0
   -9.1645   -0.8259    0.0000 C   0  0  0  0  0  0  0  0  0  0  0  0
   -8.0498   -1.8296    0.0000 C   0  0  0  0  0  0  0  0  0  0  0  0
   -2.9672   -2.9099    0.0000 N   0  0  0  0  0  0  0  0  0  0  0  0
   -3.1240   -4.4017    0.0000 O   0  0  0  0  0  0  0  0  0  0  0  0
   -1.7537   -5.0118    0.0000 C   0  0  0  0  0  0  0  0  0  0  0  0
   -0.7500   -3.8971    0.0000 C   0  0  0  0  0  0  0  0  0  0  0  0
    0.7500   -3.8971    0.0000 C   0  0  0  0  0  0  0  0  0  0  0  0
    1.5000   -2.5981    0.0000 O   0  0  0  0  0  0  0  0  0  0  0  0
    0.7500   -1.2990    0.0000 C   0  0  0  0  0  0  0  0  0  0  0  0
    1.5000    0.0000    0.0000 C   0  0  0  0  0  0  0  0  0  0  0  0
    0.7500    1.2990    0.0000 C   0  0  0  0  0  0  0  0  0  0  0  0
   -0.7500    1.2990    0.0000 C   0  0  0  0  0  0  0  0  0  0  0  0
   -1.5000    0.0000    0.0000 C   0  0  0  0  0  0  0  0  0  0  0  0
   -0.7500   -1.2990    0.0000 C   0  0  0  0  0  0  0  0  0  0  0  0
   -1.5000   -2.5981    0.0000 C   0  0  0  0  0  0  0  0  0  0  0  0
  1  2  2  0
  2  3  1  0
  3  4  1  0
  4  5  2  0
  5  6  1  0
  6  7  2  0
  7  8  1  0
  8  9  2  0
  2 10  1  0
 10 11  1  0
 11 12  1  0
 12 13  1  0
 13 14  1  0
 14 15  1  0
 15 16  1  0
 16 17  2  0
 17 18  1  0
 18 19  2  0
 19 20  1  0
 20 21  2  0
 21 22  1  0
  9  4  1  0
 22 10  1  0
 22 13  1  0
 21 16  1  0
M  END
>  <assay_chembl_id>  (232) 
CHEMBL1225550

>  <assay_description>  (232) 
Displacement of [3H]LSD from human 5HT2B receptor

>  <parent_molecule_chembl_id>  (232) 
CHEMBL1224036

>  <canonical_smiles>  (232) 
O=C(Nc1ccccc1)N1OCC2COc3ccccc3C21

>  <standard_type>  (232) 
Ki

>  <standard_relation>  (232) 
=

>  <standard_value>  (232) 
1606.0

>  <standard_units>  (232) 
nM

>  <target_pref_name>  (232) 
Serotonin 2b (5-HT2b) receptor

>  <target_chembl_id>  (232) 
CHEMBL1833

>  <target_organism>  (232) 
Homo sapiens

>  <pchembl_median>  (232) 
7.41

$$$$
CHEMBL1224102
     RDKit          2D

 19 21  0  0  0  0  0  0  0  0999 V2000
   -9.1645   -0.8259    0.0000 C   0  0  0  0  0  0  0  0  0  0  0  0
   -8.0498   -1.8296    0.0000 C   0  0  0  0  0  0  0  0  0  0  0  0
   -6.6232   -1.3661    0.0000 C   0  0  0  0  0  0  0  0  0  0  0  0
   -5.5085   -2.3698    0.0000 N   0  0  0  0  0  0  0  0  0  0  0  0
   -4.0819   -1.9062    0.0000 C   0  0  0  0  0  0  0  0  0  0  0  0
   -3.7701   -0.4390    0.0000 O   0  0  0  0  0  0  0  0  0  0  0  0
   -2.9672   -2.9099    0.0000 N   0  0  0  0  0  0  0  0  0  0  0  0
   -3.1240   -4.4017    0.0000 O   0  0  0  0  0  0  0  0  0  0  0  0
   -1.7537   -5.0118    0.0000 C   0  0  0  0  0  0  0  0  0  0  0  0
   -0.7500   -3.8971    0.0000 C   0  0  0  0  0  0  0  0  0  0  0  0
    0.7500   -3.8971    0.0000 C   0  0  0  0  0  0  0  0  0  0  0  0
    1.5000   -2.5981    0.0000 O   0  0  0  0  0  0  0  0  0  0  0  0
    0.7500   -1.2990    0.0000 C   0  0  0  0  0  0  0  0  0  0  0  0
    1.5000    0.0000    0.0000 C   0  0  0  0  0  0  0  0  0  0  0  0
    0.7500    1.2990    0.0000 C   0  0  0  0  0  0  0  0  0  0  0  0
   -0.7500    1.2990    0.0000 C   0  0  0  0  0  0  0  0  0  0  0  0
   -1.5000    0.0000    0.0000 C   0  0  0  0  0  0  0  0  0  0  0  0
   -0.7500   -1.2990    0.0000 C   0  0  0  0  0  0  0  0  0  0  0  0
   -1.5000   -2.5981    0.0000 C   0  0  0  0  0  0  0  0  0  0  0  0
  1  2  1  0
  2  3  1  0
  3  4  1  0
  4  5  1  0
  5  6  2  0
  5  7  1  0
  7  8  1  0
  8  9  1  0
  9 10  1  0
 10 11  1  0
 11 12  1  0
 12 13  1  0
 13 14  2  0
 14 15  1  0
 15 16  2  0
 16 17  1  0
 17 18  2  0
 18 19  1  0
 19  7  1  0
 19 10  1  0
 18 13  1  0
M  END
>  <assay_chembl_id>  (233) 
CHEMBL1225550

>  <assay_description>  (233) 
Displacement of [3H]LSD from human 5HT2B receptor

>  <parent_molecule_chembl_id>  (233) 
CHEMBL1224102

>  <canonical_smiles>  (233) 
CCCNC(=O)N1OCC2COc3ccccc3C21

>  <standard_type>  (233) 
Ki

>  <standard_relation>  (233) 
=

>  <standard_value>  (233) 
6596.0

>  <standard_units>  (233) 
nM

>  <target_pref_name>  (233) 
Serotonin 2b (5-HT2b) receptor

>  <target_chembl_id>  (233) 
CHEMBL1833

>  <target_organism>  (233) 
Homo sapiens

>  <pchembl_median>  (233) 
6.4

$$$$
CHEMBL1224103
     RDKit          2D

 22 25  0  0  0  0  0  0  0  0999 V2000
   -3.7701   -0.4390    0.0000 O   0  0  0  0  0  0  0  0  0  0  0  0
   -4.0819   -1.9062    0.0000 C   0  0  0  0  0  0  0  0  0  0  0  0
   -5.5085   -2.3698    0.0000 N   0  0  0  0  0  0  0  0  0  0  0  0
   -6.6232   -1.3661    0.0000 C   0  0  0  0  0  0  0  0  0  0  0  0
   -6.3114    0.1011    0.0000 C   0  0  0  0  0  0  0  0  0  0  0  0
   -7.4261    1.1048    0.0000 C   0  0  0  0  0  0  0  0  0  0  0  0
   -8.8527    0.6413    0.0000 C   0  0  0  0  0  0  0  0  0  0  0  0
   -9.1645   -0.8259    0.0000 C   0  0  0  0  0  0  0  0  0  0  0  0
   -8.0498   -1.8296    0.0000 C   0  0  0  0  0  0  0  0  0  0  0  0
   -2.9672   -2.9099    0.0000 N   0  0  0  0  0  0  0  0  0  0  0  0
   -3.1240   -4.4017    0.0000 O   0  0  0  0  0  0  0  0  0  0  0  0
   -1.7537   -5.0118    0.0000 C   0  0  0  0  0  0  0  0  0  0  0  0
   -0.7500   -3.8971    0.0000 C   0  0  0  0  0  0  0  0  0  0  0  0
    0.7500   -3.8971    0.0000 C   0  0  0  0  0  0  0  0  0  0  0  0
    1.5000   -2.5981    0.0000 O   0  0  0  0  0  0  0  0  0  0  0  0
    0.7500   -1.2990    0.0000 C   0  0  0  0  0  0  0  0  0  0  0  0
    1.5000    0.0000    0.0000 C   0  0  0  0  0  0  0  0  0  0  0  0
    0.7500    1.2990    0.0000 C   0  0  0  0  0  0  0  0  0  0  0  0
   -0.7500    1.2990    0.0000 C   0  0  0  0  0  0  0  0  0  0  0  0
   -1.5000    0.0000    0.0000 C   0  0  0  0  0  0  0  0  0  0  0  0
   -0.7500   -1.2990    0.0000 C   0  0  0  0  0  0  0  0  0  0  0  0
   -1.5000   -2.5981    0.0000 C   0  0  0  0  0  0  0  0  0  0  0  0
  1  2  2  0
  2  3  1  0
  3  4  1  0
  4  5  1  0
  5  6  1  0
  6  7  1  0
  7  8  1  0
  8  9  1  0
  2 10  1  0
 10 11  1  0
 11 12  1  0
 12 13  1  0
 13 14  1  0
 14 15  1  0
 15 16  1  0
 16 17  2  0
 17 18  1  0
 18 19  2  0
 19 20  1  0
 20 21  2  0
 21 22  1  0
  9  4  1  0
 22 10  1  0
 22 13  1  0
 21 16  1  0
M  END
>  <assay_chembl_id>  (234) 
CHEMBL1225550

>  <assay_description>  (234) 
Displacement of [3H]LSD from human 5HT2B receptor

>  <parent_molecule_chembl_id>  (234) 
CHEMBL1224103

>  <canonical_smiles>  (234) 
O=C(NC1CCCCC1)N1OCC2COc3ccccc3C21

>  <standard_type>  (234) 
Ki

>  <standard_relation>  (234) 
=

>  <standard_value>  (234) 
1773.0

>  <standard_units>  (234) 
nM

>  <target_pref_name>  (234) 
Serotonin 2b (5-HT2b) receptor

>  <target_chembl_id>  (234) 
CHEMBL1833

>  <target_organism>  (234) 
Homo sapiens

>  <pchembl_median>  (234) 
7.89

$$$$
CHEMBL1224106
     RDKit          2D

 23 26  0  0  0  0  0  0  0  0999 V2000
   -8.3617   -3.2968    0.0000 C   0  0  0  0  0  0  0  0  0  0  0  0
   -8.0498   -1.8296    0.0000 C   0  0  0  0  0  0  0  0  0  0  0  0
   -9.1645   -0.8259    0.0000 C   0  0  0  0  0  0  0  0  0  0  0  0
   -8.8527    0.6413    0.0000 C   0  0  0  0  0  0  0  0  0  0  0  0
   -7.4261    1.1048    0.0000 C   0  0  0  0  0  0  0  0  0  0  0  0
   -6.3114    0.1011    0.0000 C   0  0  0  0  0  0  0  0  0  0  0  0
   -6.6232   -1.3661    0.0000 C   0  0  0  0  0  0  0  0  0  0  0  0
   -5.5085   -2.3698    0.0000 N   0  0  0  0  0  0  0  0  0  0  0  0
   -4.0819   -1.9062    0.0000 C   0  0  0  0  0  0  0  0  0  0  0  0
   -3.7701   -0.4390    0.0000 O   0  0  0  0  0  0  0  0  0  0  0  0
   -2.9672   -2.9099    0.0000 N   0  0  0  0  0  0  0  0  0  0  0  0
   -3.1240   -4.4017    0.0000 O   0  0  0  0  0  0  0  0  0  0  0  0
   -1.7537   -5.0118    0.0000 C   0  0  0  0  0  0  0  0  0  0  0  0
   -0.7500   -3.8971    0.0000 C   0  0  0  0  0  0  0  0  0  0  0  0
    0.7500   -3.8971    0.0000 C   0  0  0  0  0  0  0  0  0  0  0  0
    1.5000   -2.5981    0.0000 O   0  0  0  0  0  0  0  0  0  0  0  0
    0.7500   -1.2990    0.0000 C   0  0  0  0  0  0  0  0  0  0  0  0
    1.5000    0.0000    0.0000 C   0  0  0  0  0  0  0  0  0  0  0  0
    0.7500    1.2990    0.0000 C   0  0  0  0  0  0  0  0  0  0  0  0
   -0.7500    1.2990    0.0000 C   0  0  0  0  0  0  0  0  0  0  0  0
   -1.5000    0.0000    0.0000 C   0  0  0  0  0  0  0  0  0  0  0  0
   -0.7500   -1.2990    0.0000 C   0  0  0  0  0  0  0  0  0  0  0  0
   -1.5000   -2.5981    0.0000 C   0  0  0  0  0  0  0  0  0  0  0  0
  1  2  1  0
  2  3  2  0
  3  4  1  0
  4  5  2  0
  5  6  1  0
  6  7  2  0
  7  8  1  0
  8  9  1  0
  9 10  2  0
  9 11  1  0
 11 12  1  0
 12 13  1  0
 13 14  1  0
 14 15  1  0
 15 16  1  0
 16 17  1  0
 17 18  2  0
 18 19  1  0
 19 20  2  0
 20 21  1  0
 21 22  2  0
 22 23  1  0
  7  2  1  0
 23 11  1  0
 23 14  1  0
 22 17  1  0
M  END
>  <assay_chembl_id>  (235) 
CHEMBL1225550

>  <assay_description>  (235) 
Displacement of [3H]LSD from human 5HT2B receptor

>  <parent_molecule_chembl_id>  (235) 
CHEMBL1224106

>  <canonical_smiles>  (235) 
Cc1ccccc1NC(=O)N1OCC2COc3ccccc3C21

>  <standard_type>  (235) 
Ki

>  <standard_relation>  (235) 
=

>  <standard_value>  (235) 
3999.0

>  <standard_units>  (235) 
nM

>  <target_pref_name>  (235) 
Serotonin 2b (5-HT2b) receptor

>  <target_chembl_id>  (235) 
CHEMBL1833

>  <target_organism>  (235) 
Homo sapiens

>  <pchembl_median>  (235) 
8.7

$$$$
CHEMBL333886
     RDKit          2D

 18 19  0  0  0  0  0  0  0  0999 V2000
    1.3299    5.6152    0.0000 C   0  0  0  0  0  0  0  0  0  0  0  0
   -0.0967    5.1517    0.0000 O   0  0  0  0  0  0  0  0  0  0  0  0
   -0.4086    3.6844    0.0000 C   0  0  0  0  0  0  0  0  0  0  0  0
    0.7062    2.6807    0.0000 C   0  0  0  0  0  0  0  0  0  0  0  0
    0.3943    1.2135    0.0000 C   0  0  0  0  0  0  0  0  0  0  0  0
    1.2760    0.0000    0.0000 C   0  0  0  0  0  0  0  0  0  0  0  0
    2.7760    0.0000    0.0000 C   0  0  0  0  0  0  0  0  0  0  0  0
    3.5260   -1.2990    0.0000 C   0  0  0  0  0  0  0  0  0  0  0  0
    5.0260   -1.2990    0.0000 N   0  0  0  0  0  0  0  0  0  0  0  0
    5.7760   -2.5981    0.0000 C   0  0  0  0  0  0  0  0  0  0  0  0
    7.2760   -2.5981    0.0000 C   0  0  0  0  0  0  0  0  0  0  0  0
    5.0260   -3.8971    0.0000 O   0  0  0  0  0  0  0  0  0  0  0  0
    0.3943   -1.2135    0.0000 C   0  0  0  0  0  0  0  0  0  0  0  0
   -1.0323   -0.7500    0.0000 N   0  0  0  0  0  0  0  0  0  0  0  0
   -1.0323    0.7500    0.0000 C   0  0  0  0  0  0  0  0  0  0  0  0
   -2.1470    1.7537    0.0000 C   0  0  0  0  0  0  0  0  0  0  0  0
   -1.8351    3.2209    0.0000 C   0  0  0  0  0  0  0  0  0  0  0  0
   -2.9499    4.2246    0.0000 F   0  0  0  0  0  0  0  0  0  0  0  0
  1  2  1  0
  2  3  1  0
  3  4  2  0
  4  5  1  0
  5  6  1  0
  6  7  1  0
  7  8  1  0
  8  9  1  0
  9 10  1  0
 10 11  1  0
 10 12  2  0
  6 13  2  0
 13 14  1  0
 14 15  1  0
 15 16  1  0
 16 17  2  0
 17 18  1  0
 17  3  1  0
 15  5  2  0
M  END
>  <assay_chembl_id>  (236) 
CHEMBL1285546

>  <assay_description>  (236) 
Displacement of [3H]LSD from human cloned 5HT2B receptor expressed in CHO cells by liquid scintillation counting

>  <parent_molecule_chembl_id>  (236) 
CHEMBL333886

>  <canonical_smiles>  (236) 
COc1cc2c(CCNC(C)=O)c[nH]c2cc1F

>  <standard_type>  (236) 
Ki

>  <standard_relation>  (236) 
=

>  <standard_value>  (236) 
2495.0

>  <standard_units>  (236) 
nM

>  <target_pref_name>  (236) 
Serotonin 2b (5-HT2b) receptor

>  <target_chembl_id>  (236) 
CHEMBL1833

>  <target_organism>  (236) 
Homo sapiens

>  <pchembl_median>  (236) 
6.93

$$$$
CHEMBL221811
     RDKit          2D

 16 18  0  0  0  0  0  0  0  0999 V2000
    3.7500   -1.2990    0.0000 C   0  0  0  0  0  0  0  0  0  0  0  0
    3.0000    0.0000    0.0000 O   0  0  0  0  0  0  0  0  0  0  0  0
    1.5000    0.0000    0.0000 C   0  0  0  0  0  0  0  0  0  0  0  0
    0.7500   -1.2990    0.0000 C   0  0  0  0  0  0  0  0  0  0  0  0
   -0.7500   -1.2990    0.0000 C   0  0  0  0  0  0  0  0  0  0  0  0
   -1.5000    0.0000    0.0000 C   0  0  0  0  0  0  0  0  0  0  0  0
   -2.9672    0.3119    0.0000 N   0  0  0  0  0  0  0  0  0  0  0  0
   -3.1240    1.8037    0.0000 C   0  0  0  0  0  0  0  0  0  0  0  0
   -1.7537    2.4138    0.0000 C   0  0  0  0  0  0  0  0  0  0  0  0
   -0.7500    1.2990    0.0000 C   0  0  0  0  0  0  0  0  0  0  0  0
    0.7500    1.2990    0.0000 C   0  0  0  0  0  0  0  0  0  0  0  0
   -1.5969    3.9055    0.0000 C   0  0  0  0  0  0  0  0  0  0  0  0
   -2.8104    4.7872    0.0000 C   0  0  0  0  0  0  0  0  0  0  0  0
   -4.1807    4.1771    0.0000 N   0  0  0  0  0  0  0  0  0  0  0  0
   -4.3375    2.6853    0.0000 C   0  0  0  0  0  0  0  0  0  0  0  0
   -5.7079    2.0752    0.0000 C   0  0  0  0  0  0  0  0  0  0  0  0
  1  2  1  0
  2  3  1  0
  3  4  2  0
  4  5  1  0
  5  6  2  0
  6  7  1  0
  7  8  1  0
  8  9  2  0
  9 10  1  0
 10 11  2  0
  9 12  1  0
 12 13  1  0
 13 14  1  0
 14 15  1  0
 15 16  1  0
 11  3  1  0
 10  6  1  0
 15  8  1  0
M  END
>  <assay_chembl_id>  (237) 
CHEMBL1285546

>  <assay_description>  (237) 
Displacement of [3H]LSD from human cloned 5HT2B receptor expressed in CHO cells by liquid scintillation counting

>  <parent_molecule_chembl_id>  (237) 
CHEMBL221811

>  <canonical_smiles>  (237) 
COc1ccc2[nH]c3c(c2c1)CCNC3C

>  <standard_type>  (237) 
Ki

>  <standard_relation>  (237) 
=

>  <standard_value>  (237) 
491.0

>  <standard_units>  (237) 
nM

>  <target_pref_name>  (237) 
Serotonin 2b (5-HT2b) receptor

>  <target_chembl_id>  (237) 
CHEMBL1833

>  <target_organism>  (237) 
Homo sapiens

>  <pchembl_median>  (237) 
6.03

$$$$
CHEMBL25236
     RDKit          2D

 31 34  0  0  0  0  0  0  0  0999 V2000
   -7.5000  -15.5885    0.0000 C   0  0  0  0  0  0  0  0  0  0  0  0
   -8.2500  -14.2894    0.0000 O   0  0  0  0  0  0  0  0  0  0  0  0
   -9.7500  -14.2894    0.0000 C   0  0  0  0  0  0  0  0  0  0  0  0
  -10.5000  -15.5885    0.0000 C   0  0  0  0  0  0  0  0  0  0  0  0
  -12.0000  -15.5885    0.0000 C   0  0  0  0  0  0  0  0  0  0  0  0
  -12.7500  -14.2894    0.0000 C   0  0  0  0  0  0  0  0  0  0  0  0
  -12.0000  -12.9904    0.0000 C   0  0  0  0  0  0  0  0  0  0  0  0
  -10.5000  -12.9904    0.0000 C   0  0  0  0  0  0  0  0  0  0  0  0
   -9.7500  -11.6913    0.0000 N   0  0  0  0  0  0  0  0  0  0  0  0
   -8.2500  -11.6913    0.0000 C   0  0  0  0  0  0  0  0  0  0  0  0
   -7.5000  -10.3923    0.0000 C   0  0  0  0  0  0  0  0  0  0  0  0
   -8.2500   -9.0933    0.0000 N   0  0  0  0  0  0  0  0  0  0  0  0
   -7.5000   -7.7942    0.0000 C   0  0  0  0  0  0  0  0  0  0  0  0
   -6.0000   -7.7942    0.0000 C   0  0  0  0  0  0  0  0  0  0  0  0
   -5.2500   -6.4952    0.0000 C   0  0  0  0  0  0  0  0  0  0  0  0
   -3.7500   -6.4952    0.0000 C   0  0  0  0  0  0  0  0  0  0  0  0
   -3.0000   -5.1962    0.0000 N   0  0  0  0  0  0  0  0  0  0  0  0
   -1.5000   -5.1962    0.0000 C   0  0  0  0  0  0  0  0  0  0  0  0
   -0.7500   -6.4952    0.0000 O   0  0  0  0  0  0  0  0  0  0  0  0
   -0.7500   -3.8971    0.0000 C   0  0  0  0  0  0  0  0  0  0  0  0
    0.7500   -3.8971    0.0000 C   0  0  0  0  0  0  0  0  0  0  0  0
    1.5000   -2.5981    0.0000 C   0  0  0  0  0  0  0  0  0  0  0  0
    0.7500   -1.2990    0.0000 C   0  0  0  0  0  0  0  0  0  0  0  0
    1.5000    0.0000    0.0000 C   0  0  0  0  0  0  0  0  0  0  0  0
    0.7500    1.2990    0.0000 C   0  0  0  0  0  0  0  0  0  0  0  0
   -0.7500    1.2990    0.0000 C   0  0  0  0  0  0  0  0  0  0  0  0
   -1.5000    0.0000    0.0000 C   0  0  0  0  0  0  0  0  0  0  0  0
   -0.7500   -1.2990    0.0000 C   0  0  0  0  0  0  0  0  0  0  0  0
   -1.5000   -2.5981    0.0000 C   0  0  0  0  0  0  0  0  0  0  0  0
   -9.7500   -9.0933    0.0000 C   0  0  0  0  0  0  0  0  0  0  0  0
  -10.5000  -10.3923    0.0000 C   0  0  0  0  0  0  0  0  0  0  0  0
  1  2  1  0
  2  3  1  0
  3  4  2  0
  4  5  1  0
  5  6  2  0
  6  7  1  0
  7  8  2  0
  8  9  1  0
  9 10  1  0
 10 11  1  0
 11 12  1  0
 12 13  1  0
 13 14  1  0
 14 15  1  0
 15 16  1  0
 16 17  1  0
 17 18  1  0
 18 19  2  0
 18 20  1  0
 20 21  2  0
 21 22  1  0
 22 23  2  0
 23 24  1  0
 24 25  2  0
 25 26  1  0
 26 27  2  0
 27 28  1  0
 28 29  2  0
 12 30  1  0
 30 31  1  0
  8  3  1  0
 31  9  1  0
 29 20  1  0
 28 23  1  0
M  END
>  <assay_chembl_id>  (238) 
CHEMBL1285546

>  <assay_description>  (238) 
Displacement of [3H]LSD from human cloned 5HT2B receptor expressed in CHO cells by liquid scintillation counting

>  <parent_molecule_chembl_id>  (238) 
CHEMBL25236

>  <canonical_smiles>  (238) 
COc1ccccc1N1CCN(CCCCNC(=O)c2ccc3ccccc3c2)CC1

>  <standard_type>  (238) 
Ki

>  <standard_relation>  (238) 
=

>  <standard_value>  (238) 
33.1

>  <standard_units>  (238) 
nM

>  <target_pref_name>  (238) 
Serotonin 2b (5-HT2b) receptor

>  <target_chembl_id>  (238) 
CHEMBL1833

>  <target_organism>  (238) 
Homo sapiens

>  <pchembl_median>  (238) 
5.26

$$$$
CHEMBL254832
     RDKit          2D

 24 26  0  0  0  0  0  0  0  0999 V2000
    0.7500   -9.0933    0.0000 C   0  0  0  0  0  0  0  0  0  0  0  0
    1.5000   -7.7942    0.0000 C   0  0  0  0  0  0  0  0  0  0  0  0
    0.7500   -6.4952    0.0000 N   0  0  0  0  0  0  0  0  0  0  0  0
    1.5000   -5.1962    0.0000 C   0  0  0  0  0  0  0  0  0  0  0  0
    0.7500   -3.8971    0.0000 C   0  0  0  0  0  0  0  0  0  0  0  0
    1.5000   -2.5981    0.0000 C   0  0  0  0  0  0  0  0  0  0  0  0
    0.7500   -1.2990    0.0000 C   0  0  0  0  0  0  0  0  0  0  0  0
    1.5000    0.0000    0.0000 C   0  0  0  0  0  0  0  0  0  0  0  0
    0.7500    1.2990    0.0000 C   0  0  0  0  0  0  0  0  0  0  0  0
   -0.7500    1.2990    0.0000 C   0  0  0  0  0  0  0  0  0  0  0  0
   -1.5000    0.0000    0.0000 C   0  0  0  0  0  0  0  0  0  0  0  0
   -0.7500   -1.2990    0.0000 C   0  0  0  0  0  0  0  0  0  0  0  0
    3.0000   -2.5981    0.0000 C   0  0  0  0  0  0  0  0  0  0  0  0
    3.7500   -3.8971    0.0000 C   0  0  0  0  0  0  0  0  0  0  0  0
    5.2500   -3.8971    0.0000 C   0  0  0  0  0  0  0  0  0  0  0  0
    6.0000   -2.5981    0.0000 C   0  0  0  0  0  0  0  0  0  0  0  0
    5.2500   -1.2990    0.0000 C   0  0  0  0  0  0  0  0  0  0  0  0
    3.7500   -1.2990    0.0000 C   0  0  0  0  0  0  0  0  0  0  0  0
    3.0000   -7.7942    0.0000 C   0  0  0  0  0  0  0  0  0  0  0  0
    3.7500   -9.0933    0.0000 C   0  0  0  0  0  0  0  0  0  0  0  0
    5.2500   -9.0933    0.0000 C   0  0  0  0  0  0  0  0  0  0  0  0
    6.0000   -7.7942    0.0000 C   0  0  0  0  0  0  0  0  0  0  0  0
    5.2500   -6.4952    0.0000 C   0  0  0  0  0  0  0  0  0  0  0  0
    3.7500   -6.4952    0.0000 C   0  0  0  0  0  0  0  0  0  0  0  0
  1  2  1  0
  2  3  1  0
  3  4  1  0
  4  5  1  0
  5  6  1  0
  6  7  1  0
  7  8  2  0
  8  9  1  0
  9 10  2  0
 10 11  1  0
 11 12  2  0
  6 13  1  0
 13 14  2  0
 14 15  1  0
 15 16  2  0
 16 17  1  0
 17 18  2  0
  2 19  1  0
 19 20  2  0
 20 21  1  0
 21 22  2  0
 22 23  1  0
 23 24  2  0
 12  7  1  0
 18 13  1  0
 24 19  1  0
M  END
>  <assay_chembl_id>  (239) 
CHEMBL1285546

>  <assay_description>  (239) 
Displacement of [3H]LSD from human cloned 5HT2B receptor expressed in CHO cells by liquid scintillation counting

>  <parent_molecule_chembl_id>  (239) 
CHEMBL254832

>  <canonical_smiles>  (239) 
CC(NCCC(c1ccccc1)c1ccccc1)c1ccccc1

>  <standard_type>  (239) 
Ki

>  <standard_relation>  (239) 
=

>  <standard_value>  (239) 
3217.0

>  <standard_units>  (239) 
nM

>  <target_pref_name>  (239) 
Serotonin 2b (5-HT2b) receptor

>  <target_chembl_id>  (239) 
CHEMBL1833

>  <target_organism>  (239) 
Homo sapiens

>  <pchembl_median>  (239) 
7.11

$$$$
CHEMBL46516
     RDKit          2D

 35 39  0  0  0  0  0  0  0  0999 V2000
   -1.3273   -2.9812    0.0000 O   0  0  0  0  0  0  0  0  0  0  0  0
    0.1399   -2.6694    0.0000 C   0  0  0  0  0  0  0  0  0  0  0  0
    1.2546   -3.6731    0.0000 N   0  0  0  0  0  0  0  0  0  0  0  0
    2.5537   -2.9231    0.0000 C   0  0  0  0  0  0  0  0  0  0  0  0
    2.2418   -1.4558    0.0000 N   0  0  0  0  0  0  0  0  0  0  0  0
    3.2455   -0.3411    0.0000 C   0  0  0  0  0  0  0  0  0  0  0  0
    4.7127   -0.6530    0.0000 C   0  0  0  0  0  0  0  0  0  0  0  0
    5.7164    0.4617    0.0000 C   0  0  0  0  0  0  0  0  0  0  0  0
    5.2529    1.8883    0.0000 C   0  0  0  0  0  0  0  0  0  0  0  0
    3.7856    2.2002    0.0000 C   0  0  0  0  0  0  0  0  0  0  0  0
    2.7820    1.0855    0.0000 C   0  0  0  0  0  0  0  0  0  0  0  0
    0.7500   -1.2990    0.0000 C   0  0  0  0  0  0  0  0  0  0  0  0
    1.5000    0.0000    0.0000 C   0  0  0  0  0  0  0  0  0  0  0  0
    0.7500    1.2990    0.0000 C   0  0  0  0  0  0  0  0  0  0  0  0
   -0.7500    1.2990    0.0000 N   0  0  0  0  0  0  0  0  0  0  0  0
   -1.5000    2.5981    0.0000 C   0  0  0  0  0  0  0  0  0  0  0  0
   -0.7500    3.8971    0.0000 C   0  0  0  0  0  0  0  0  0  0  0  0
   -1.5000    5.1962    0.0000 C   0  0  0  0  0  0  0  0  0  0  0  0
   -0.7500    6.4952    0.0000 C   0  0  0  0  0  0  0  0  0  0  0  0
   -1.5000    7.7942    0.0000 C   0  0  0  0  0  0  0  0  0  0  0  0
   -0.7500    9.0933    0.0000 C   0  0  0  0  0  0  0  0  0  0  0  0
   -1.5000   10.3923    0.0000 C   0  0  0  0  0  0  0  0  0  0  0  0
   -3.0000   10.3923    0.0000 C   0  0  0  0  0  0  0  0  0  0  0  0
   -3.7500   11.6913    0.0000 F   0  0  0  0  0  0  0  0  0  0  0  0
   -3.7500    9.0933    0.0000 C   0  0  0  0  0  0  0  0  0  0  0  0
   -3.0000    7.7942    0.0000 C   0  0  0  0  0  0  0  0  0  0  0  0
    0.7500    6.4952    0.0000 C   0  0  0  0  0  0  0  0  0  0  0  0
    1.5000    5.1962    0.0000 C   0  0  0  0  0  0  0  0  0  0  0  0
    3.0000    5.1962    0.0000 C   0  0  0  0  0  0  0  0  0  0  0  0
    3.7500    6.4952    0.0000 C   0  0  0  0  0  0  0  0  0  0  0  0
    5.2500    6.4952    0.0000 F   0  0  0  0  0  0  0  0  0  0  0  0
    3.0000    7.7942    0.0000 C   0  0  0  0  0  0  0  0  0  0  0  0
    1.5000    7.7942    0.0000 C   0  0  0  0  0  0  0  0  0  0  0  0
   -1.5000    0.0000    0.0000 C   0  0  0  0  0  0  0  0  0  0  0  0
   -0.7500   -1.2990    0.0000 C   0  0  0  0  0  0  0  0  0  0  0  0
  1  2  2  0
  2  3  1  0
  3  4  1  0
  4  5  1  0
  5  6  1  0
  6  7  2  0
  7  8  1  0
  8  9  2  0
  9 10  1  0
 10 11  2  0
  5 12  1  0
 12 13  1  0
 13 14  1  0
 14 15  1  0
 15 16  1  0
 16 17  1  0
 17 18  1  0
 18 19  1  0
 19 20  1  0
 20 21  2  0
 21 22  1  0
 22 23  2  0
 23 24  1  0
 23 25  1  0
 25 26  2  0
 19 27  1  0
 27 28  2  0
 28 29  1  0
 29 30  2  0
 30 31  1  0
 30 32  1  0
 32 33  2  0
 15 34  1  0
 34 35  1  0
 12  2  1  0
 26 20  1  0
 33 27  1  0
 11  6  1  0
 35 12  1  0
M  END
>  <assay_chembl_id>  (240) 
CHEMBL1285546

>  <assay_description>  (240) 
Displacement of [3H]LSD from human cloned 5HT2B receptor expressed in CHO cells by liquid scintillation counting

>  <parent_molecule_chembl_id>  (240) 
CHEMBL46516

>  <canonical_smiles>  (240) 
O=C1NCN(c2ccccc2)C12CCN(CCCC(c1ccc(F)cc1)c1ccc(F)cc1)CC2

>  <standard_type>  (240) 
Ki

>  <standard_relation>  (240) 
=

>  <standard_value>  (240) 
151.4

>  <standard_units>  (240) 
nM

>  <target_pref_name>  (240) 
Serotonin 2b (5-HT2b) receptor

>  <target_chembl_id>  (240) 
CHEMBL1833

>  <target_organism>  (240) 
Homo sapiens

>  <pchembl_median>  (240) 
7.2

$$$$
CHEMBL1201356
     RDKit          2D

 25 28  0  0  0  0  0  0  0  0999 V2000
    9.7500   -6.4952    0.0000 C   0  0  0  0  0  0  0  0  0  0  0  0
    8.2500   -6.4952    0.0000 C   0  0  0  0  0  0  0  0  0  0  0  0
    7.5000   -5.1962    0.0000 C   0  0  0  0  0  0  0  0  0  0  0  0
    8.2500   -3.8971    0.0000 C   0  0  0  0  0  0  0  0  0  0  0  0
    9.7500   -3.8971    0.0000 O   0  0  0  0  0  0  0  0  0  0  0  0
    6.0000   -5.1962    0.0000 N   0  0  0  0  0  0  0  0  0  0  0  0
    5.2500   -3.8971    0.0000 C   0  0  0  0  0  0  0  0  0  0  0  0
    6.0000   -2.5981    0.0000 O   0  0  0  0  0  0  0  0  0  0  0  0
    3.7500   -3.8971    0.0000 C   0  0  0  0  0  0  0  0  0  0  0  0
    3.0000   -2.5981    0.0000 C   0  0  0  0  0  0  0  0  0  0  0  0
    1.5000   -2.5981    0.0000 C   0  0  0  0  0  0  0  0  0  0  0  0
    0.7500   -1.2990    0.0000 C   0  0  0  0  0  0  0  0  0  0  0  0
    1.5000    0.0000    0.0000 C   0  0  0  0  0  0  0  0  0  0  0  0
    0.7500    1.2990    0.0000 C   0  0  0  0  0  0  0  0  0  0  0  0
   -0.7500    1.2990    0.0000 C   0  0  0  0  0  0  0  0  0  0  0  0
   -1.5000    0.0000    0.0000 C   0  0  0  0  0  0  0  0  0  0  0  0
   -2.9266   -0.4635    0.0000 N   0  0  0  0  0  0  0  0  0  0  0  0
   -2.9266   -1.9635    0.0000 C   0  0  0  0  0  0  0  0  0  0  0  0
   -1.5000   -2.5981    0.0000 C   0  0  0  0  0  0  0  0  0  0  0  0
   -0.7500   -1.2990    0.0000 C   0  0  0  0  0  0  0  0  0  0  0  0
   -0.7500   -3.8971    0.0000 C   0  0  0  0  0  0  0  0  0  0  0  0
    0.7500   -3.8971    0.0000 C   0  0  0  0  0  0  0  0  0  0  0  0
    1.5000   -5.1962    0.0000 N   0  0  0  0  0  0  0  0  0  0  0  0
    0.7500   -6.4952    0.0000 C   0  0  0  0  0  0  0  0  0  0  0  0
    3.0000   -5.1962    0.0000 C   0  0  0  0  0  0  0  0  0  0  0  0
  1  2  1  0
  3  2  1  6
  3  4  1  0
  4  5  1  0
  3  6  1  0
  6  7  1  0
  7  8  2  0
  9  7  1  1
  9 10  1  0
 10 11  2  0
 11 12  1  0
 12 13  2  0
 13 14  1  0
 14 15  2  0
 15 16  1  0
 16 17  1  0
 17 18  1  0
 18 19  2  0
 19 20  1  0
 19 21  1  0
 22 21  1  6
 22 23  1  0
 23 24  1  0
 23 25  1  0
 25  9  1  0
 22 11  1  0
 20 12  1  0
 20 16  2  0
M  END
>  <assay_chembl_id>  (241) 
CHEMBL1285546

>  <assay_description>  (241) 
Displacement of [3H]LSD from human cloned 5HT2B receptor expressed in CHO cells by liquid scintillation counting

>  <parent_molecule_chembl_id>  (241) 
CHEMBL1201356

>  <canonical_smiles>  (241) 
CC[C@@H](CO)NC(=O)[C@@H]1C=C2c3cccc4[nH]cc(c34)C[C@H]2N(C)C1

>  <standard_type>  (241) 
Ki

>  <standard_relation>  (241) 
=

>  <standard_value>  (241) 
0.8

>  <standard_units>  (241) 
nM

>  <target_pref_name>  (241) 
Serotonin 2b (5-HT2b) receptor

>  <target_chembl_id>  (241) 
CHEMBL1833

>  <target_organism>  (241) 
Homo sapiens

>  <pchembl_median>  (241) 
6.89

$$$$
CHEMBL1276050
     RDKit          2D

 13 14  0  0  0  0  0  0  0  0999 V2000
    3.7500   -1.2990    0.0000 C   0  0  0  0  0  0  0  0  0  0  0  0
    3.0000    0.0000    0.0000 O   0  0  0  0  0  0  0  0  0  0  0  0
    1.5000    0.0000    0.0000 C   0  0  0  0  0  0  0  0  0  0  0  0
    0.7500   -1.2990    0.0000 C   0  0  0  0  0  0  0  0  0  0  0  0
   -0.7500   -1.2990    0.0000 C   0  0  0  0  0  0  0  0  0  0  0  0
   -1.5000    0.0000    0.0000 C   0  0  0  0  0  0  0  0  0  0  0  0
   -2.9672    0.3119    0.0000 N   0  0  0  0  0  0  0  0  0  0  0  0
   -3.1240    1.8037    0.0000 C   0  0  0  0  0  0  0  0  0  0  0  0
   -1.7537    2.4138    0.0000 C   0  0  0  0  0  0  0  0  0  0  0  0
   -1.4418    3.8810    0.0000 C   0  0  0  0  0  0  0  0  0  0  0  0
   -2.5565    4.8847    0.0000 N   0  0  0  0  0  0  0  0  0  0  0  0
   -0.7500    1.2990    0.0000 C   0  0  0  0  0  0  0  0  0  0  0  0
    0.7500    1.2990    0.0000 C   0  0  0  0  0  0  0  0  0  0  0  0
  1  2  1  0
  2  3  1  0
  3  4  2  0
  4  5  1  0
  5  6  2  0
  6  7  1  0
  7  8  1  0
  8  9  2  0
  9 10  1  0
 10 11  1  0
  9 12  1  0
 12 13  2  0
 13  3  1  0
 12  6  1  0
M  END
>  <assay_chembl_id>  (242) 
CHEMBL1285546

>  <assay_description>  (242) 
Displacement of [3H]LSD from human cloned 5HT2B receptor expressed in CHO cells by liquid scintillation counting

>  <parent_molecule_chembl_id>  (242) 
CHEMBL1276050

>  <canonical_smiles>  (242) 
COc1ccc2[nH]cc(CN)c2c1

>  <standard_type>  (242) 
Ki

>  <standard_relation>  (242) 
=

>  <standard_value>  (242) 
1617.0

>  <standard_units>  (242) 
nM

>  <target_pref_name>  (242) 
Serotonin 2b (5-HT2b) receptor

>  <target_chembl_id>  (242) 
CHEMBL1833

>  <target_organism>  (242) 
Homo sapiens

>  <pchembl_median>  (242) 
7.68

$$$$
CHEMBL81330
     RDKit          2D

 25 28  0  0  0  0  0  0  0  0999 V2000
  -14.2500   -3.8971    0.0000 F   0  0  0  0  0  0  0  0  0  0  0  0
  -12.7500   -3.8971    0.0000 C   0  0  0  0  0  0  0  0  0  0  0  0
  -12.0000   -2.5981    0.0000 C   0  0  0  0  0  0  0  0  0  0  0  0
  -10.5000   -2.5981    0.0000 C   0  0  0  0  0  0  0  0  0  0  0  0
   -9.7500   -3.8971    0.0000 C   0  0  0  0  0  0  0  0  0  0  0  0
   -8.2500   -3.8971    0.0000 N   0  0  0  0  0  0  0  0  0  0  0  0
   -7.5000   -5.1962    0.0000 C   0  0  0  0  0  0  0  0  0  0  0  0
   -6.0000   -5.1962    0.0000 C   0  0  0  0  0  0  0  0  0  0  0  0
   -5.2500   -3.8971    0.0000 N   0  0  0  0  0  0  0  0  0  0  0  0
   -3.7500   -3.8971    0.0000 C   0  0  0  0  0  0  0  0  0  0  0  0
   -3.0000   -2.5981    0.0000 C   0  0  0  0  0  0  0  0  0  0  0  0
   -1.5000   -2.5981    0.0000 C   0  0  0  0  0  0  0  0  0  0  0  0
   -0.7500   -3.8971    0.0000 O   0  0  0  0  0  0  0  0  0  0  0  0
    0.7500   -3.8971    0.0000 C   0  0  0  0  0  0  0  0  0  0  0  0
    1.5000   -2.5981    0.0000 C   0  0  0  0  0  0  0  0  0  0  0  0
    0.7500   -1.2990    0.0000 C   0  0  0  0  0  0  0  0  0  0  0  0
    1.5000    0.0000    0.0000 C   0  0  0  0  0  0  0  0  0  0  0  0
    0.7500    1.2990    0.0000 C   0  0  0  0  0  0  0  0  0  0  0  0
   -0.7500    1.2990    0.0000 C   0  0  0  0  0  0  0  0  0  0  0  0
   -1.5000    0.0000    0.0000 C   0  0  0  0  0  0  0  0  0  0  0  0
   -0.7500   -1.2990    0.0000 C   0  0  0  0  0  0  0  0  0  0  0  0
   -6.0000   -2.5981    0.0000 C   0  0  0  0  0  0  0  0  0  0  0  0
   -7.5000   -2.5981    0.0000 C   0  0  0  0  0  0  0  0  0  0  0  0
  -10.5000   -5.1962    0.0000 C   0  0  0  0  0  0  0  0  0  0  0  0
  -12.0000   -5.1962    0.0000 C   0  0  0  0  0  0  0  0  0  0  0  0
  1  2  1  0
  2  3  2  0
  3  4  1  0
  4  5  2  0
  5  6  1  0
  6  7  1  0
  7  8  1  0
  8  9  1  0
  9 10  1  0
 10 11  1  0
 11 12  1  0
 12 13  1  0
 13 14  1  0
 14 15  1  0
 15 16  1  0
 16 17  2  0
 17 18  1  0
 18 19  2  0
 19 20  1  0
 20 21  2  0
  9 22  1  0
 22 23  1  0
  5 24  1  0
 24 25  2  0
 25  2  1  0
 23  6  1  0
 21 12  1  0
 21 16  1  0
M  END
>  <assay_chembl_id>  (243) 
CHEMBL1285546

>  <assay_description>  (243) 
Displacement of [3H]LSD from human cloned 5HT2B receptor expressed in CHO cells by liquid scintillation counting

>  <parent_molecule_chembl_id>  (243) 
CHEMBL81330

>  <canonical_smiles>  (243) 
Fc1ccc(N2CCN(CCC3OCCc4ccccc43)CC2)cc1

>  <standard_type>  (243) 
Ki

>  <standard_relation>  (243) 
=

>  <standard_value>  (243) 
69.6

>  <standard_units>  (243) 
nM

>  <target_pref_name>  (243) 
Serotonin 2b (5-HT2b) receptor

>  <target_chembl_id>  (243) 
CHEMBL1833

>  <target_organism>  (243) 
Homo sapiens

>  <pchembl_median>  (243) 
7.4

$$$$
CHEMBL81
     RDKit          2D

 34 38  0  0  0  0  0  0  0  0999 V2000
   -3.7548   -2.1855    0.0000 O   0  0  0  0  0  0  0  0  0  0  0  0
   -2.6401   -3.1891    0.0000 C   0  0  0  0  0  0  0  0  0  0  0  0
   -2.9520   -4.6564    0.0000 C   0  0  0  0  0  0  0  0  0  0  0  0
   -4.3786   -5.1199    0.0000 C   0  0  0  0  0  0  0  0  0  0  0  0
   -4.6904   -6.5871    0.0000 C   0  0  0  0  0  0  0  0  0  0  0  0
   -3.5757   -7.5908    0.0000 C   0  0  0  0  0  0  0  0  0  0  0  0
   -3.8876   -9.0580    0.0000 O   0  0  0  0  0  0  0  0  0  0  0  0
   -5.3142   -9.5216    0.0000 C   0  0  0  0  0  0  0  0  0  0  0  0
   -5.6260  -10.9888    0.0000 C   0  0  0  0  0  0  0  0  0  0  0  0
   -7.0526  -11.4523    0.0000 N   0  0  0  0  0  0  0  0  0  0  0  0
   -8.1673  -10.4486    0.0000 C   0  0  0  0  0  0  0  0  0  0  0  0
   -9.5939  -10.9121    0.0000 C   0  0  0  0  0  0  0  0  0  0  0  0
   -9.9058  -12.3794    0.0000 C   0  0  0  0  0  0  0  0  0  0  0  0
   -8.7911  -13.3831    0.0000 C   0  0  0  0  0  0  0  0  0  0  0  0
   -7.3645  -12.9195    0.0000 C   0  0  0  0  0  0  0  0  0  0  0  0
   -2.1491   -7.1273    0.0000 C   0  0  0  0  0  0  0  0  0  0  0  0
   -1.8373   -5.6601    0.0000 C   0  0  0  0  0  0  0  0  0  0  0  0
   -1.2135   -2.7256    0.0000 C   0  0  0  0  0  0  0  0  0  0  0  0
   -0.7500   -1.2990    0.0000 C   0  0  0  0  0  0  0  0  0  0  0  0
   -1.6317   -0.0855    0.0000 C   0  0  0  0  0  0  0  0  0  0  0  0
   -1.0216    1.2848    0.0000 C   0  0  0  0  0  0  0  0  0  0  0  0
   -1.9033    2.4983    0.0000 C   0  0  0  0  0  0  0  0  0  0  0  0
   -3.3950    2.3415    0.0000 C   0  0  0  0  0  0  0  0  0  0  0  0
   -4.2767    3.5551    0.0000 O   0  0  0  0  0  0  0  0  0  0  0  0
   -4.0051    0.9712    0.0000 C   0  0  0  0  0  0  0  0  0  0  0  0
   -3.1235   -0.2423    0.0000 C   0  0  0  0  0  0  0  0  0  0  0  0
    0.7500   -1.2990    0.0000 S   0  0  0  0  0  0  0  0  0  0  0  0
    1.2135   -2.7256    0.0000 C   0  0  0  0  0  0  0  0  0  0  0  0
    2.5838   -3.3357    0.0000 C   0  0  0  0  0  0  0  0  0  0  0  0
    2.7406   -4.8275    0.0000 C   0  0  0  0  0  0  0  0  0  0  0  0
    4.1110   -5.4376    0.0000 O   0  0  0  0  0  0  0  0  0  0  0  0
    1.5271   -5.7092    0.0000 C   0  0  0  0  0  0  0  0  0  0  0  0
    0.1568   -5.0991    0.0000 C   0  0  0  0  0  0  0  0  0  0  0  0
   -0.0000   -3.6073    0.0000 C   0  0  0  0  0  0  0  0  0  0  0  0
  1  2  2  0
  2  3  1  0
  3  4  2  0
  4  5  1  0
  5  6  2  0
  6  7  1  0
  7  8  1  0
  8  9  1  0
  9 10  1  0
 10 11  1  0
 11 12  1  0
 12 13  1  0
 13 14  1  0
 14 15  1  0
  6 16  1  0
 16 17  2  0
  2 18  1  0
 18 19  2  0
 19 20  1  0
 20 21  2  0
 21 22  1  0
 22 23  2  0
 23 24  1  0
 23 25  1  0
 25 26  2  0
 19 27  1  0
 27 28  1  0
 28 29  2  0
 29 30  1  0
 30 31  1  0
 30 32  2  0
 32 33  1  0
 33 34  2  0
 17  3  1  0
 34 18  1  0
 15 10  1  0
 26 20  1  0
 34 28  1  0
M  END
>  <assay_chembl_id>  (244) 
CHEMBL1285546

>  <assay_description>  (244) 
Displacement of [3H]LSD from human cloned 5HT2B receptor expressed in CHO cells by liquid scintillation counting

>  <parent_molecule_chembl_id>  (244) 
CHEMBL81

>  <canonical_smiles>  (244) 
O=C(c1ccc(OCCN2CCCCC2)cc1)c1c(-c2ccc(O)cc2)sc2cc(O)ccc12

>  <standard_type>  (244) 
Ki

>  <standard_relation>  (244) 
=

>  <standard_value>  (244) 
69.0

>  <standard_units>  (244) 
nM

>  <target_pref_name>  (244) 
Serotonin 2b (5-HT2b) receptor

>  <target_chembl_id>  (244) 
CHEMBL1833

>  <target_organism>  (244) 
Homo sapiens

>  <pchembl_median>  (244) 
7.77

$$$$
CHEMBL297784
     RDKit          2D

 22 25  0  0  0  0  0  0  0  0999 V2000
    2.7760    0.0000    0.0000 C   0  0  0  0  0  0  0  0  0  0  0  0
    1.2760    0.0000    0.0000 N   0  0  0  0  0  0  0  0  0  0  0  0
    0.3943    1.2135    0.0000 C   0  0  0  0  0  0  0  0  0  0  0  0
   -1.0323    0.7500    0.0000 C   0  0  0  0  0  0  0  0  0  0  0  0
   -1.0323   -0.7500    0.0000 C   0  0  0  0  0  0  0  0  0  0  0  0
   -2.1470   -1.7537    0.0000 C   0  0  0  0  0  0  0  0  0  0  0  0
   -1.8351   -3.2209    0.0000 C   0  0  0  0  0  0  0  0  0  0  0  0
   -0.4086   -3.6844    0.0000 C   0  0  0  0  0  0  0  0  0  0  0  0
    0.7062   -2.6807    0.0000 C   0  0  0  0  0  0  0  0  0  0  0  0
    0.3943   -1.2135    0.0000 C   0  0  0  0  0  0  0  0  0  0  0  0
   -0.4086   -5.1844    0.0000 C   0  0  0  0  0  0  0  0  0  0  0  0
   -1.8351   -5.6480    0.0000 C   0  0  0  0  0  0  0  0  0  0  0  0
   -2.7168   -4.4344    0.0000 N   0  0  0  0  0  0  0  0  0  0  0  0
   -4.2168   -4.4344    0.0000 C   0  0  0  0  0  0  0  0  0  0  0  0
   -4.9668   -3.1354    0.0000 O   0  0  0  0  0  0  0  0  0  0  0  0
   -4.9668   -5.7335    0.0000 N   0  0  0  0  0  0  0  0  0  0  0  0
   -6.4668   -5.7335    0.0000 C   0  0  0  0  0  0  0  0  0  0  0  0
   -7.2168   -4.4344    0.0000 C   0  0  0  0  0  0  0  0  0  0  0  0
   -8.7168   -4.4344    0.0000 C   0  0  0  0  0  0  0  0  0  0  0  0
   -9.4668   -5.7335    0.0000 C   0  0  0  0  0  0  0  0  0  0  0  0
   -8.7168   -7.0325    0.0000 N   0  0  0  0  0  0  0  0  0  0  0  0
   -7.2168   -7.0325    0.0000 C   0  0  0  0  0  0  0  0  0  0  0  0
  1  2  1  0
  2  3  1  0
  3  4  2  0
  4  5  1  0
  5  6  2  0
  6  7  1  0
  7  8  2  0
  8  9  1  0
  9 10  2  0
  8 11  1  0
 11 12  1  0
 12 13  1  0
 13 14  1  0
 14 15  2  0
 14 16  1  0
 16 17  1  0
 17 18  2  0
 18 19  1  0
 19 20  2  0
 20 21  1  0
 21 22  2  0
 10  2  1  0
 22 17  1  0
 10  5  1  0
 13  7  1  0
M  END
>  <assay_chembl_id>  (245) 
CHEMBL1285546

>  <assay_description>  (245) 
Displacement of [3H]LSD from human cloned 5HT2B receptor expressed in CHO cells by liquid scintillation counting

>  <parent_molecule_chembl_id>  (245) 
CHEMBL297784

>  <canonical_smiles>  (245) 
Cn1ccc2cc3c(cc21)CCN3C(=O)Nc1cccnc1

>  <standard_type>  (245) 
Ki

>  <standard_relation>  (245) 
=

>  <standard_value>  (245) 
4.3

>  <standard_units>  (245) 
nM

>  <target_pref_name>  (245) 
Serotonin 2b (5-HT2b) receptor

>  <target_chembl_id>  (245) 
CHEMBL1833

>  <target_organism>  (245) 
Homo sapiens

>  <pchembl_median>  (245) 
6.66

$$$$
CHEMBL1277917
     RDKit          2D

 25 28  0  0  0  0  0  0  0  0999 V2000
    3.7500   -6.4952    0.0000 C   0  0  0  0  0  0  0  0  0  0  0  0
    3.0000   -5.1962    0.0000 N   0  0  0  0  0  0  0  0  0  0  0  0
    1.5000   -5.1962    0.0000 C   0  0  0  0  0  0  0  0  0  0  0  0
    0.7500   -3.8971    0.0000 C   0  0  0  0  0  0  0  0  0  0  0  0
    1.5000   -2.5981    0.0000 N   0  0  0  0  0  0  0  0  0  0  0  0
    0.7500   -1.2990    0.0000 C   0  0  0  0  0  0  0  0  0  0  0  0
    1.5000    0.0000    0.0000 C   0  0  0  0  0  0  0  0  0  0  0  0
    0.7500    1.2990    0.0000 C   0  0  0  0  0  0  0  0  0  0  0  0
   -0.7500    1.2990    0.0000 C   0  0  0  0  0  0  0  0  0  0  0  0
   -1.7537    2.4138    0.0000 N   0  0  0  0  0  0  0  0  0  0  0  0
   -3.1240    1.8037    0.0000 N   0  0  0  0  0  0  0  0  0  0  0  0
   -2.9672    0.3119    0.0000 C   0  0  0  0  0  0  0  0  0  0  0  0
   -4.0819   -0.6918    0.0000 S   0  0  0  0  0  0  0  0  0  0  0  0
   -3.0782   -1.8065    0.0000 O   0  0  0  0  0  0  0  0  0  0  0  0
   -5.0856    0.4229    0.0000 O   0  0  0  0  0  0  0  0  0  0  0  0
   -5.1967   -1.6955    0.0000 C   0  0  0  0  0  0  0  0  0  0  0  0
   -6.6232   -1.2320    0.0000 C   0  0  0  0  0  0  0  0  0  0  0  0
   -7.7380   -2.2357    0.0000 C   0  0  0  0  0  0  0  0  0  0  0  0
   -7.4261   -3.7029    0.0000 C   0  0  0  0  0  0  0  0  0  0  0  0
   -5.9995   -4.1664    0.0000 C   0  0  0  0  0  0  0  0  0  0  0  0
   -4.8848   -3.1627    0.0000 C   0  0  0  0  0  0  0  0  0  0  0  0
   -1.5000    0.0000    0.0000 C   0  0  0  0  0  0  0  0  0  0  0  0
   -0.7500   -1.2990    0.0000 C   0  0  0  0  0  0  0  0  0  0  0  0
    3.0000   -2.5981    0.0000 C   0  0  0  0  0  0  0  0  0  0  0  0
    3.7500   -3.8971    0.0000 C   0  0  0  0  0  0  0  0  0  0  0  0
  1  2  1  0
  2  3  1  0
  3  4  1  0
  4  5  1  0
  5  6  1  0
  6  7  2  0
  7  8  1  0
  8  9  2  0
  9 10  1  0
 10 11  1  0
 11 12  2  0
 12 13  1  0
 13 14  2  0
 13 15  2  0
 13 16  1  0
 16 17  2  0
 17 18  1  0
 18 19  2  0
 19 20  1  0
 20 21  2  0
 12 22  1  0
 22 23  2  0
  5 24  1  0
 24 25  1  0
 25  2  1  0
 23  6  1  0
 22  9  1  0
 21 16  1  0
M  END
>  <assay_chembl_id>  (246) 
CHEMBL1286373

>  <assay_description>  (246) 
Displacement of [3H]LSD from human cloned 5HT2B receptor expressed in human HeLa cells

>  <parent_molecule_chembl_id>  (246) 
CHEMBL1277917

>  <canonical_smiles>  (246) 
CN1CCN(c2ccc3[nH]nc(S(=O)(=O)c4ccccc4)c3c2)CC1

>  <standard_type>  (246) 
Ki

>  <standard_relation>  (246) 
=

>  <standard_value>  (246) 
978.0

>  <standard_units>  (246) 
nM

>  <target_pref_name>  (246) 
Serotonin 2b (5-HT2b) receptor

>  <target_chembl_id>  (246) 
CHEMBL1833

>  <target_organism>  (246) 
Homo sapiens

>  <pchembl_median>  (246) 
7.68

$$$$
CHEMBL1277104
     RDKit          2D

 29 33  0  0  0  0  0  0  0  0999 V2000
   -4.9371  -12.1514    0.0000 C   0  0  0  0  0  0  0  0  0  0  0  0
   -5.2489  -10.6842    0.0000 N   0  0  0  0  0  0  0  0  0  0  0  0
   -6.6755  -10.2207    0.0000 C   0  0  0  0  0  0  0  0  0  0  0  0
   -6.9874   -8.7534    0.0000 C   0  0  0  0  0  0  0  0  0  0  0  0
   -5.8727   -7.7497    0.0000 N   0  0  0  0  0  0  0  0  0  0  0  0
   -6.1845   -6.2825    0.0000 C   0  0  0  0  0  0  0  0  0  0  0  0
   -7.6111   -5.8190    0.0000 C   0  0  0  0  0  0  0  0  0  0  0  0
   -7.9230   -4.3518    0.0000 C   0  0  0  0  0  0  0  0  0  0  0  0
   -6.8083   -3.3481    0.0000 C   0  0  0  0  0  0  0  0  0  0  0  0
   -6.8083   -1.8481    0.0000 N   0  0  0  0  0  0  0  0  0  0  0  0
   -5.3817   -1.3846    0.0000 N   0  0  0  0  0  0  0  0  0  0  0  0
   -4.5000   -2.5981    0.0000 C   0  0  0  0  0  0  0  0  0  0  0  0
   -3.0000   -2.5981    0.0000 S   0  0  0  0  0  0  0  0  0  0  0  0
   -3.0000   -4.0981    0.0000 O   0  0  0  0  0  0  0  0  0  0  0  0
   -3.0000   -1.0981    0.0000 O   0  0  0  0  0  0  0  0  0  0  0  0
   -1.5000   -2.5981    0.0000 C   0  0  0  0  0  0  0  0  0  0  0  0
   -0.7500   -3.8971    0.0000 C   0  0  0  0  0  0  0  0  0  0  0  0
    0.7500   -3.8971    0.0000 C   0  0  0  0  0  0  0  0  0  0  0  0
    1.5000   -2.5981    0.0000 C   0  0  0  0  0  0  0  0  0  0  0  0
    0.7500   -1.2990    0.0000 C   0  0  0  0  0  0  0  0  0  0  0  0
    1.5000    0.0000    0.0000 C   0  0  0  0  0  0  0  0  0  0  0  0
    0.7500    1.2990    0.0000 C   0  0  0  0  0  0  0  0  0  0  0  0
   -0.7500    1.2990    0.0000 C   0  0  0  0  0  0  0  0  0  0  0  0
   -1.5000    0.0000    0.0000 C   0  0  0  0  0  0  0  0  0  0  0  0
   -0.7500   -1.2990    0.0000 C   0  0  0  0  0  0  0  0  0  0  0  0
   -5.3817   -3.8116    0.0000 C   0  0  0  0  0  0  0  0  0  0  0  0
   -5.0698   -5.2788    0.0000 C   0  0  0  0  0  0  0  0  0  0  0  0
   -4.4461   -8.2133    0.0000 C   0  0  0  0  0  0  0  0  0  0  0  0
   -4.1342   -9.6805    0.0000 C   0  0  0  0  0  0  0  0  0  0  0  0
  1  2  1  0
  2  3  1  0
  3  4  1  0
  4  5  1  0
  5  6  1  0
  6  7  2  0
  7  8  1  0
  8  9  2  0
  9 10  1  0
 10 11  1  0
 11 12  2  0
 12 13  1  0
 13 14  2  0
 13 15  2  0
 13 16  1  0
 16 17  2  0
 17 18  1  0
 18 19  2  0
 19 20  1  0
 20 21  2  0
 21 22  1  0
 22 23  2  0
 23 24  1  0
 24 25  2  0
 12 26  1  0
 26 27  2  0
  5 28  1  0
 28 29  1  0
 29  2  1  0
 27  6  1  0
 26  9  1  0
 25 16  1  0
 25 20  1  0
M  END
>  <assay_chembl_id>  (247) 
CHEMBL1286373

>  <assay_description>  (247) 
Displacement of [3H]LSD from human cloned 5HT2B receptor expressed in human HeLa cells

>  <parent_molecule_chembl_id>  (247) 
CHEMBL1277104

>  <canonical_smiles>  (247) 
CN1CCN(c2ccc3[nH]nc(S(=O)(=O)c4cccc5ccccc45)c3c2)CC1

>  <standard_type>  (247) 
Ki

>  <standard_relation>  (247) 
=

>  <standard_value>  (247) 
601.0

>  <standard_units>  (247) 
nM

>  <target_pref_name>  (247) 
Serotonin 2b (5-HT2b) receptor

>  <target_chembl_id>  (247) 
CHEMBL1833

>  <target_organism>  (247) 
Homo sapiens

>  <pchembl_median>  (247) 
6.47

$$$$
CHEMBL1277105
     RDKit          2D

 28 32  0  0  0  0  0  0  0  0999 V2000
   -3.0000   -4.0981    0.0000 O   0  0  0  0  0  0  0  0  0  0  0  0
   -3.0000   -2.5981    0.0000 S   0  0  0  0  0  0  0  0  0  0  0  0
   -3.0000   -1.0981    0.0000 O   0  0  0  0  0  0  0  0  0  0  0  0
   -1.5000   -2.5981    0.0000 C   0  0  0  0  0  0  0  0  0  0  0  0
   -0.7500   -3.8971    0.0000 C   0  0  0  0  0  0  0  0  0  0  0  0
    0.7500   -3.8971    0.0000 C   0  0  0  0  0  0  0  0  0  0  0  0
    1.5000   -2.5981    0.0000 C   0  0  0  0  0  0  0  0  0  0  0  0
    0.7500   -1.2990    0.0000 C   0  0  0  0  0  0  0  0  0  0  0  0
    1.5000    0.0000    0.0000 C   0  0  0  0  0  0  0  0  0  0  0  0
    0.7500    1.2990    0.0000 C   0  0  0  0  0  0  0  0  0  0  0  0
   -0.7500    1.2990    0.0000 C   0  0  0  0  0  0  0  0  0  0  0  0
   -1.5000    0.0000    0.0000 C   0  0  0  0  0  0  0  0  0  0  0  0
   -0.7500   -1.2990    0.0000 C   0  0  0  0  0  0  0  0  0  0  0  0
   -4.5000   -2.5981    0.0000 C   0  0  0  0  0  0  0  0  0  0  0  0
   -5.3817   -1.3846    0.0000 N   0  0  0  0  0  0  0  0  0  0  0  0
   -6.8083   -1.8481    0.0000 N   0  0  0  0  0  0  0  0  0  0  0  0
   -6.8083   -3.3481    0.0000 C   0  0  0  0  0  0  0  0  0  0  0  0
   -7.9230   -4.3518    0.0000 C   0  0  0  0  0  0  0  0  0  0  0  0
   -7.6111   -5.8190    0.0000 C   0  0  0  0  0  0  0  0  0  0  0  0
   -6.1845   -6.2825    0.0000 C   0  0  0  0  0  0  0  0  0  0  0  0
   -5.8727   -7.7497    0.0000 N   0  0  0  0  0  0  0  0  0  0  0  0
   -6.9874   -8.7534    0.0000 C   0  0  0  0  0  0  0  0  0  0  0  0
   -6.6755  -10.2207    0.0000 C   0  0  0  0  0  0  0  0  0  0  0  0
   -5.2489  -10.6842    0.0000 N   0  0  0  0  0  0  0  0  0  0  0  0
   -4.1342   -9.6805    0.0000 C   0  0  0  0  0  0  0  0  0  0  0  0
   -4.4461   -8.2133    0.0000 C   0  0  0  0  0  0  0  0  0  0  0  0
   -5.0698   -5.2788    0.0000 C   0  0  0  0  0  0  0  0  0  0  0  0
   -5.3817   -3.8116    0.0000 C   0  0  0  0  0  0  0  0  0  0  0  0
  1  2  2  0
  2  3  2  0
  2  4  1  0
  4  5  2  0
  5  6  1  0
  6  7  2  0
  7  8  1  0
  8  9  2  0
  9 10  1  0
 10 11  2  0
 11 12  1  0
 12 13  2  0
  2 14  1  0
 14 15  2  0
 15 16  1  0
 16 17  1  0
 17 18  2  0
 18 19  1  0
 19 20  2  0
 20 21  1  0
 21 22  1  0
 22 23  1  0
 23 24  1  0
 24 25  1  0
 25 26  1  0
 20 27  1  0
 27 28  2  0
 13  4  1  0
 28 14  1  0
 13  8  1  0
 28 17  1  0
 26 21  1  0
M  END
>  <assay_chembl_id>  (248) 
CHEMBL1286373

>  <assay_description>  (248) 
Displacement of [3H]LSD from human cloned 5HT2B receptor expressed in human HeLa cells

>  <parent_molecule_chembl_id>  (248) 
CHEMBL1277105

>  <canonical_smiles>  (248) 
O=S(=O)(c1cccc2ccccc12)c1n[nH]c2ccc(N3CCNCC3)cc12

>  <standard_type>  (248) 
Ki

>  <standard_relation>  (248) 
=

>  <standard_value>  (248) 
236.0

>  <standard_units>  (248) 
nM

>  <target_pref_name>  (248) 
Serotonin 2b (5-HT2b) receptor

>  <target_chembl_id>  (248) 
CHEMBL1833

>  <target_organism>  (248) 
Homo sapiens

>  <pchembl_median>  (248) 
6.77

$$$$
CHEMBL1277565
     RDKit          2D

 29 33  0  0  0  0  0  0  0  0999 V2000
   -8.0218   -0.9664    0.0000 C   0  0  0  0  0  0  0  0  0  0  0  0
   -6.8083   -1.8481    0.0000 N   0  0  0  0  0  0  0  0  0  0  0  0
   -5.3817   -1.3846    0.0000 N   0  0  0  0  0  0  0  0  0  0  0  0
   -4.5000   -2.5981    0.0000 C   0  0  0  0  0  0  0  0  0  0  0  0
   -3.0000   -2.5981    0.0000 S   0  0  0  0  0  0  0  0  0  0  0  0
   -3.0000   -4.0981    0.0000 O   0  0  0  0  0  0  0  0  0  0  0  0
   -3.0000   -1.0981    0.0000 O   0  0  0  0  0  0  0  0  0  0  0  0
   -1.5000   -2.5981    0.0000 C   0  0  0  0  0  0  0  0  0  0  0  0
   -0.7500   -3.8971    0.0000 C   0  0  0  0  0  0  0  0  0  0  0  0
    0.7500   -3.8971    0.0000 C   0  0  0  0  0  0  0  0  0  0  0  0
    1.5000   -2.5981    0.0000 C   0  0  0  0  0  0  0  0  0  0  0  0
    0.7500   -1.2990    0.0000 C   0  0  0  0  0  0  0  0  0  0  0  0
    1.5000    0.0000    0.0000 C   0  0  0  0  0  0  0  0  0  0  0  0
    0.7500    1.2990    0.0000 C   0  0  0  0  0  0  0  0  0  0  0  0
   -0.7500    1.2990    0.0000 C   0  0  0  0  0  0  0  0  0  0  0  0
   -1.5000    0.0000    0.0000 C   0  0  0  0  0  0  0  0  0  0  0  0
   -0.7500   -1.2990    0.0000 C   0  0  0  0  0  0  0  0  0  0  0  0
   -5.3817   -3.8116    0.0000 C   0  0  0  0  0  0  0  0  0  0  0  0
   -5.0698   -5.2788    0.0000 C   0  0  0  0  0  0  0  0  0  0  0  0
   -6.1845   -6.2825    0.0000 C   0  0  0  0  0  0  0  0  0  0  0  0
   -5.8727   -7.7497    0.0000 N   0  0  0  0  0  0  0  0  0  0  0  0
   -6.9874   -8.7534    0.0000 C   0  0  0  0  0  0  0  0  0  0  0  0
   -6.6755  -10.2207    0.0000 C   0  0  0  0  0  0  0  0  0  0  0  0
   -5.2489  -10.6842    0.0000 N   0  0  0  0  0  0  0  0  0  0  0  0
   -4.1342   -9.6805    0.0000 C   0  0  0  0  0  0  0  0  0  0  0  0
   -4.4461   -8.2133    0.0000 C   0  0  0  0  0  0  0  0  0  0  0  0
   -7.6111   -5.8190    0.0000 C   0  0  0  0  0  0  0  0  0  0  0  0
   -7.9230   -4.3518    0.0000 C   0  0  0  0  0  0  0  0  0  0  0  0
   -6.8083   -3.3481    0.0000 C   0  0  0  0  0  0  0  0  0  0  0  0
  1  2  1  0
  2  3  1  0
  3  4  2  0
  4  5  1  0
  5  6  2  0
  5  7  2  0
  5  8  1  0
  8  9  2  0
  9 10  1  0
 10 11  2  0
 11 12  1  0
 12 13  2  0
 13 14  1  0
 14 15  2  0
 15 16  1  0
 16 17  2  0
  4 18  1  0
 18 19  2  0
 19 20  1  0
 20 21  1  0
 21 22  1  0
 22 23  1  0
 23 24  1  0
 24 25  1  0
 25 26  1  0
 20 27  2  0
 27 28  1  0
 28 29  2  0
 29  2  1  0
 17  8  1  0
 29 18  1  0
 17 12  1  0
 26 21  1  0
M  END
>  <assay_chembl_id>  (249) 
CHEMBL1286373

>  <assay_description>  (249) 
Displacement of [3H]LSD from human cloned 5HT2B receptor expressed in human HeLa cells

>  <parent_molecule_chembl_id>  (249) 
CHEMBL1277565

>  <canonical_smiles>  (249) 
Cn1nc(S(=O)(=O)c2cccc3ccccc23)c2cc(N3CCNCC3)ccc21

>  <standard_type>  (249) 
Ki

>  <standard_relation>  (249) 
=

>  <standard_value>  (249) 
87.0

>  <standard_units>  (249) 
nM

>  <target_pref_name>  (249) 
Serotonin 2b (5-HT2b) receptor

>  <target_chembl_id>  (249) 
CHEMBL1833

>  <target_organism>  (249) 
Homo sapiens

>  <pchembl_median>  (249) 
5.7

$$$$
CHEMBL1277837
     RDKit          2D

 31 35  0  0  0  0  0  0  0  0999 V2000
   -7.8650    0.5254    0.0000 C   0  0  0  0  0  0  0  0  0  0  0  0
   -8.0218   -0.9664    0.0000 C   0  0  0  0  0  0  0  0  0  0  0  0
   -9.3921   -1.5765    0.0000 C   0  0  0  0  0  0  0  0  0  0  0  0
   -6.8083   -1.8481    0.0000 N   0  0  0  0  0  0  0  0  0  0  0  0
   -5.3817   -1.3846    0.0000 N   0  0  0  0  0  0  0  0  0  0  0  0
   -4.5000   -2.5981    0.0000 C   0  0  0  0  0  0  0  0  0  0  0  0
   -3.0000   -2.5981    0.0000 S   0  0  0  0  0  0  0  0  0  0  0  0
   -3.0000   -4.0981    0.0000 O   0  0  0  0  0  0  0  0  0  0  0  0
   -3.0000   -1.0981    0.0000 O   0  0  0  0  0  0  0  0  0  0  0  0
   -1.5000   -2.5981    0.0000 C   0  0  0  0  0  0  0  0  0  0  0  0
   -0.7500   -3.8971    0.0000 C   0  0  0  0  0  0  0  0  0  0  0  0
    0.7500   -3.8971    0.0000 C   0  0  0  0  0  0  0  0  0  0  0  0
    1.5000   -2.5981    0.0000 C   0  0  0  0  0  0  0  0  0  0  0  0
    0.7500   -1.2990    0.0000 C   0  0  0  0  0  0  0  0  0  0  0  0
    1.5000    0.0000    0.0000 C   0  0  0  0  0  0  0  0  0  0  0  0
    0.7500    1.2990    0.0000 C   0  0  0  0  0  0  0  0  0  0  0  0
   -0.7500    1.2990    0.0000 C   0  0  0  0  0  0  0  0  0  0  0  0
   -1.5000    0.0000    0.0000 C   0  0  0  0  0  0  0  0  0  0  0  0
   -0.7500   -1.2990    0.0000 C   0  0  0  0  0  0  0  0  0  0  0  0
   -5.3817   -3.8116    0.0000 C   0  0  0  0  0  0  0  0  0  0  0  0
   -5.0698   -5.2788    0.0000 C   0  0  0  0  0  0  0  0  0  0  0  0
   -6.1845   -6.2825    0.0000 C   0  0  0  0  0  0  0  0  0  0  0  0
   -5.8727   -7.7497    0.0000 N   0  0  0  0  0  0  0  0  0  0  0  0
   -6.9874   -8.7534    0.0000 C   0  0  0  0  0  0  0  0  0  0  0  0
   -6.6755  -10.2207    0.0000 C   0  0  0  0  0  0  0  0  0  0  0  0
   -5.2489  -10.6842    0.0000 N   0  0  0  0  0  0  0  0  0  0  0  0
   -4.1342   -9.6805    0.0000 C   0  0  0  0  0  0  0  0  0  0  0  0
   -4.4461   -8.2133    0.0000 C   0  0  0  0  0  0  0  0  0  0  0  0
   -7.6111   -5.8190    0.0000 C   0  0  0  0  0  0  0  0  0  0  0  0
   -7.9230   -4.3518    0.0000 C   0  0  0  0  0  0  0  0  0  0  0  0
   -6.8083   -3.3481    0.0000 C   0  0  0  0  0  0  0  0  0  0  0  0
  1  2  1  0
  2  3  1  0
  2  4  1  0
  4  5  1  0
  5  6  2  0
  6  7  1  0
  7  8  2  0
  7  9  2  0
  7 10  1  0
 10 11  2  0
 11 12  1  0
 12 13  2  0
 13 14  1  0
 14 15  2  0
 15 16  1  0
 16 17  2  0
 17 18  1  0
 18 19  2  0
  6 20  1  0
 20 21  2  0
 21 22  1  0
 22 23  1  0
 23 24  1  0
 24 25  1  0
 25 26  1  0
 26 27  1  0
 27 28  1  0
 22 29  2  0
 29 30  1  0
 30 31  2  0
 31  4  1  0
 19 10  1  0
 31 20  1  0
 19 14  1  0
 28 23  1  0
M  END
>  <assay_chembl_id>  (250) 
CHEMBL1286373

>  <assay_description>  (250) 
Displacement of [3H]LSD from human cloned 5HT2B receptor expressed in human HeLa cells

>  <parent_molecule_chembl_id>  (250) 
CHEMBL1277837

>  <canonical_smiles>  (250) 
CC(C)n1nc(S(=O)(=O)c2cccc3ccccc23)c2cc(N3CCNCC3)ccc21

>  <standard_type>  (250) 
Ki

>  <standard_relation>  (250) 
=

>  <standard_value>  (250) 
96.0

>  <standard_units>  (250) 
nM

>  <target_pref_name>  (250) 
Serotonin 2b (5-HT2b) receptor

>  <target_chembl_id>  (250) 
CHEMBL1833

>  <target_organism>  (250) 
Homo sapiens

>  <pchembl_median>  (250) 
6.52

$$$$
CHEMBL1275630
     RDKit          2D

 32 36  0  0  0  0  0  0  0  0999 V2000
   -9.0785    1.4071    0.0000 C   0  0  0  0  0  0  0  0  0  0  0  0
   -7.8650    0.5254    0.0000 C   0  0  0  0  0  0  0  0  0  0  0  0
   -6.4947    1.1355    0.0000 C   0  0  0  0  0  0  0  0  0  0  0  0
   -8.0218   -0.9664    0.0000 C   0  0  0  0  0  0  0  0  0  0  0  0
   -6.8083   -1.8481    0.0000 N   0  0  0  0  0  0  0  0  0  0  0  0
   -5.3817   -1.3846    0.0000 N   0  0  0  0  0  0  0  0  0  0  0  0
   -4.5000   -2.5981    0.0000 C   0  0  0  0  0  0  0  0  0  0  0  0
   -3.0000   -2.5981    0.0000 S   0  0  0  0  0  0  0  0  0  0  0  0
   -3.0000   -4.0981    0.0000 O   0  0  0  0  0  0  0  0  0  0  0  0
   -3.0000   -1.0981    0.0000 O   0  0  0  0  0  0  0  0  0  0  0  0
   -1.5000   -2.5981    0.0000 C   0  0  0  0  0  0  0  0  0  0  0  0
   -0.7500   -3.8971    0.0000 C   0  0  0  0  0  0  0  0  0  0  0  0
    0.7500   -3.8971    0.0000 C   0  0  0  0  0  0  0  0  0  0  0  0
    1.5000   -2.5981    0.0000 C   0  0  0  0  0  0  0  0  0  0  0  0
    0.7500   -1.2990    0.0000 C   0  0  0  0  0  0  0  0  0  0  0  0
    1.5000    0.0000    0.0000 C   0  0  0  0  0  0  0  0  0  0  0  0
    0.7500    1.2990    0.0000 C   0  0  0  0  0  0  0  0  0  0  0  0
   -0.7500    1.2990    0.0000 C   0  0  0  0  0  0  0  0  0  0  0  0
   -1.5000    0.0000    0.0000 C   0  0  0  0  0  0  0  0  0  0  0  0
   -0.7500   -1.2990    0.0000 C   0  0  0  0  0  0  0  0  0  0  0  0
   -5.3817   -3.8116    0.0000 C   0  0  0  0  0  0  0  0  0  0  0  0
   -5.0698   -5.2788    0.0000 C   0  0  0  0  0  0  0  0  0  0  0  0
   -6.1845   -6.2825    0.0000 C   0  0  0  0  0  0  0  0  0  0  0  0
   -5.8727   -7.7497    0.0000 N   0  0  0  0  0  0  0  0  0  0  0  0
   -6.9874   -8.7534    0.0000 C   0  0  0  0  0  0  0  0  0  0  0  0
   -6.6755  -10.2207    0.0000 C   0  0  0  0  0  0  0  0  0  0  0  0
   -5.2489  -10.6842    0.0000 N   0  0  0  0  0  0  0  0  0  0  0  0
   -4.1342   -9.6805    0.0000 C   0  0  0  0  0  0  0  0  0  0  0  0
   -4.4461   -8.2133    0.0000 C   0  0  0  0  0  0  0  0  0  0  0  0
   -7.6111   -5.8190    0.0000 C   0  0  0  0  0  0  0  0  0  0  0  0
   -7.9230   -4.3518    0.0000 C   0  0  0  0  0  0  0  0  0  0  0  0
   -6.8083   -3.3481    0.0000 C   0  0  0  0  0  0  0  0  0  0  0  0
  1  2  1  0
  2  3  1  0
  2  4  1  0
  4  5  1  0
  5  6  1  0
  6  7  2  0
  7  8  1  0
  8  9  2  0
  8 10  2  0
  8 11  1  0
 11 12  2  0
 12 13  1  0
 13 14  2  0
 14 15  1  0
 15 16  2  0
 16 17  1  0
 17 18  2  0
 18 19  1  0
 19 20  2  0
  7 21  1  0
 21 22  2  0
 22 23  1  0
 23 24  1  0
 24 25  1  0
 25 26  1  0
 26 27  1  0
 27 28  1  0
 28 29  1  0
 23 30  2  0
 30 31  1  0
 31 32  2  0
 32  5  1  0
 20 11  1  0
 32 21  1  0
 20 15  1  0
 29 24  1  0
M  END
>  <assay_chembl_id>  (251) 
CHEMBL1286373

>  <assay_description>  (251) 
Displacement of [3H]LSD from human cloned 5HT2B receptor expressed in human HeLa cells

>  <parent_molecule_chembl_id>  (251) 
CHEMBL1275630

>  <canonical_smiles>  (251) 
CC(C)Cn1nc(S(=O)(=O)c2cccc3ccccc23)c2cc(N3CCNCC3)ccc21

>  <standard_type>  (251) 
Ki

>  <standard_relation>  (251) 
=

>  <standard_value>  (251) 
281.0

>  <standard_units>  (251) 
nM

>  <target_pref_name>  (251) 
Serotonin 2b (5-HT2b) receptor

>  <target_chembl_id>  (251) 
CHEMBL1833

>  <target_organism>  (251) 
Homo sapiens

>  <pchembl_median>  (251) 
7.13

$$$$
CHEMBL1278001
     RDKit          2D

 35 40  0  0  0  0  0  0  0  0999 V2000
   -3.0000   -4.0981    0.0000 O   0  0  0  0  0  0  0  0  0  0  0  0
   -3.0000   -2.5981    0.0000 S   0  0  0  0  0  0  0  0  0  0  0  0
   -3.0000   -1.0981    0.0000 O   0  0  0  0  0  0  0  0  0  0  0  0
   -1.5000   -2.5981    0.0000 C   0  0  0  0  0  0  0  0  0  0  0  0
   -0.7500   -3.8971    0.0000 C   0  0  0  0  0  0  0  0  0  0  0  0
    0.7500   -3.8971    0.0000 C   0  0  0  0  0  0  0  0  0  0  0  0
    1.5000   -2.5981    0.0000 C   0  0  0  0  0  0  0  0  0  0  0  0
    0.7500   -1.2990    0.0000 C   0  0  0  0  0  0  0  0  0  0  0  0
    1.5000    0.0000    0.0000 C   0  0  0  0  0  0  0  0  0  0  0  0
    0.7500    1.2990    0.0000 C   0  0  0  0  0  0  0  0  0  0  0  0
   -0.7500    1.2990    0.0000 C   0  0  0  0  0  0  0  0  0  0  0  0
   -1.5000    0.0000    0.0000 C   0  0  0  0  0  0  0  0  0  0  0  0
   -0.7500   -1.2990    0.0000 C   0  0  0  0  0  0  0  0  0  0  0  0
   -4.5000   -2.5981    0.0000 C   0  0  0  0  0  0  0  0  0  0  0  0
   -5.3817   -1.3846    0.0000 N   0  0  0  0  0  0  0  0  0  0  0  0
   -6.8083   -1.8481    0.0000 N   0  0  0  0  0  0  0  0  0  0  0  0
   -8.0218   -0.9664    0.0000 C   0  0  0  0  0  0  0  0  0  0  0  0
   -7.8650    0.5254    0.0000 C   0  0  0  0  0  0  0  0  0  0  0  0
   -6.4947    1.1355    0.0000 C   0  0  0  0  0  0  0  0  0  0  0  0
   -6.3379    2.6273    0.0000 C   0  0  0  0  0  0  0  0  0  0  0  0
   -7.5514    3.5090    0.0000 C   0  0  0  0  0  0  0  0  0  0  0  0
   -8.9217    2.8988    0.0000 C   0  0  0  0  0  0  0  0  0  0  0  0
   -9.0785    1.4071    0.0000 C   0  0  0  0  0  0  0  0  0  0  0  0
   -6.8083   -3.3481    0.0000 C   0  0  0  0  0  0  0  0  0  0  0  0
   -7.9230   -4.3518    0.0000 C   0  0  0  0  0  0  0  0  0  0  0  0
   -7.6111   -5.8190    0.0000 C   0  0  0  0  0  0  0  0  0  0  0  0
   -6.1845   -6.2825    0.0000 C   0  0  0  0  0  0  0  0  0  0  0  0
   -5.8727   -7.7497    0.0000 N   0  0  0  0  0  0  0  0  0  0  0  0
   -6.9874   -8.7534    0.0000 C   0  0  0  0  0  0  0  0  0  0  0  0
   -6.6755  -10.2207    0.0000 C   0  0  0  0  0  0  0  0  0  0  0  0
   -5.2489  -10.6842    0.0000 N   0  0  0  0  0  0  0  0  0  0  0  0
   -4.1342   -9.6805    0.0000 C   0  0  0  0  0  0  0  0  0  0  0  0
   -4.4461   -8.2133    0.0000 C   0  0  0  0  0  0  0  0  0  0  0  0
   -5.0698   -5.2788    0.0000 C   0  0  0  0  0  0  0  0  0  0  0  0
   -5.3817   -3.8116    0.0000 C   0  0  0  0  0  0  0  0  0  0  0  0
  1  2  2  0
  2  3  2  0
  2  4  1  0
  4  5  2  0
  5  6  1  0
  6  7  2  0
  7  8  1  0
  8  9  2  0
  9 10  1  0
 10 11  2  0
 11 12  1  0
 12 13  2  0
  2 14  1  0
 14 15  2  0
 15 16  1  0
 16 17  1  0
 17 18  1  0
 18 19  2  0
 19 20  1  0
 20 21  2  0
 21 22  1  0
 22 23  2  0
 16 24  1  0
 24 25  2  0
 25 26  1  0
 26 27  2  0
 27 28  1  0
 28 29  1  0
 29 30  1  0
 30 31  1  0
 31 32  1  0
 32 33  1  0
 27 34  1  0
 34 35  2  0
 13  4  1  0
 35 14  1  0
 13  8  1  0
 23 18  1  0
 35 24  1  0
 33 28  1  0
M  END
>  <assay_chembl_id>  (252) 
CHEMBL1286373

>  <assay_description>  (252) 
Displacement of [3H]LSD from human cloned 5HT2B receptor expressed in human HeLa cells

>  <parent_molecule_chembl_id>  (252) 
CHEMBL1278001

>  <canonical_smiles>  (252) 
O=S(=O)(c1cccc2ccccc12)c1nn(Cc2ccccc2)c2ccc(N3CCNCC3)cc12

>  <standard_type>  (252) 
Ki

>  <standard_relation>  (252) 
=

>  <standard_value>  (252) 
141.0

>  <standard_units>  (252) 
nM

>  <target_pref_name>  (252) 
Serotonin 2b (5-HT2b) receptor

>  <target_chembl_id>  (252) 
CHEMBL1833

>  <target_organism>  (252) 
Homo sapiens

>  <pchembl_median>  (252) 
5.71

$$$$
CHEMBL1631545
     RDKit          2D

 30 34  0  0  0  0  0  0  0  0999 V2000
    3.0000    0.0000    0.0000 C   0  0  0  0  0  0  0  0  0  0  0  0
    1.5000    0.0000    0.0000 C   0  0  0  0  0  0  0  0  0  0  0  0
    0.7500   -1.2990    0.0000 C   0  0  0  0  0  0  0  0  0  0  0  0
   -0.7500   -1.2990    0.0000 C   0  0  0  0  0  0  0  0  0  0  0  0
   -1.5000    0.0000    0.0000 C   0  0  0  0  0  0  0  0  0  0  0  0
   -3.0000    0.0000    0.0000 C   0  0  0  0  0  0  0  0  0  0  0  0
   -3.7500   -1.2990    0.0000 N   0  0  0  0  0  0  0  0  0  0  0  0
   -5.2500   -1.2990    0.0000 C   0  0  0  0  0  0  0  0  0  0  0  0
   -6.0000   -2.5981    0.0000 C   0  0  0  0  0  0  0  0  0  0  0  0
   -5.2500   -3.8971    0.0000 N   0  0  0  0  0  0  0  0  0  0  0  0
   -6.0000   -5.1962    0.0000 C   0  0  0  0  0  0  0  0  0  0  0  0
   -7.5000   -5.1962    0.0000 C   0  0  0  0  0  0  0  0  0  0  0  0
   -8.2500   -6.4952    0.0000 C   0  0  0  0  0  0  0  0  0  0  0  0
   -9.7500   -6.4952    0.0000 C   0  0  0  0  0  0  0  0  0  0  0  0
  -10.5000   -7.7942    0.0000 C   0  0  0  0  0  0  0  0  0  0  0  0
   -9.7500   -9.0933    0.0000 C   0  0  0  0  0  0  0  0  0  0  0  0
   -8.2500   -9.0933    0.0000 C   0  0  0  0  0  0  0  0  0  0  0  0
   -7.5000  -10.3923    0.0000 N   0  0  0  0  0  0  0  0  0  0  0  0
   -6.0082  -10.5491    0.0000 C   0  0  0  0  0  0  0  0  0  0  0  0
   -5.6963  -12.0163    0.0000 C   0  0  0  0  0  0  0  0  0  0  0  0
   -6.9954  -12.7663    0.0000 C   0  0  0  0  0  0  0  0  0  0  0  0
   -8.1101  -11.7626    0.0000 N   0  0  0  0  0  0  0  0  0  0  0  0
   -7.5000   -7.7942    0.0000 C   0  0  0  0  0  0  0  0  0  0  0  0
   -3.7500   -3.8971    0.0000 C   0  0  0  0  0  0  0  0  0  0  0  0
   -3.0000   -2.5981    0.0000 C   0  0  0  0  0  0  0  0  0  0  0  0
   -3.7500    1.2990    0.0000 C   0  0  0  0  0  0  0  0  0  0  0  0
   -3.0000    2.5981    0.0000 C   0  0  0  0  0  0  0  0  0  0  0  0
   -1.5000    2.5981    0.0000 C   0  0  0  0  0  0  0  0  0  0  0  0
   -0.7500    1.2990    0.0000 C   0  0  0  0  0  0  0  0  0  0  0  0
    0.7500    1.2990    0.0000 N   0  0  0  0  0  0  0  0  0  0  0  0
  1  2  1  0
  2  3  2  0
  3  4  1  0
  4  5  2  0
  5  6  1  0
  6  7  1  0
  7  8  1  0
  8  9  1  0
  9 10  1  0
 10 11  1  0
 11 12  1  0
 12 13  1  0
 13 14  2  0
 14 15  1  0
 15 16  2  0
 16 17  1  0
 17 18  1  0
 18 19  1  0
 19 20  2  0
 20 21  1  0
 21 22  2  0
 17 23  2  0
 10 24  1  0
 24 25  1  0
  6 26  2  0
 26 27  1  0
 27 28  2  0
 28 29  1  0
 29 30  2  0
 30  2  1  0
 29  5  1  0
 25  7  1  0
 23 13  1  0
 22 18  1  0
M  END
>  <assay_chembl_id>  (253) 
CHEMBL1635451

>  <assay_description>  (253) 
Binding affinity to human recombinant 5-HT2B receptor by radioligand displacement assay

>  <parent_molecule_chembl_id>  (253) 
CHEMBL1631545

>  <canonical_smiles>  (253) 
Cc1ccc2c(N3CCN(CCc4cccc(-n5cccn5)c4)CC3)cccc2n1

>  <standard_type>  (253) 
Ki

>  <standard_relation>  (253) 
=

>  <standard_value>  (253) 
79.43

>  <standard_units>  (253) 
nM

>  <target_pref_name>  (253) 
Serotonin 2b (5-HT2b) receptor

>  <target_chembl_id>  (253) 
CHEMBL1833

>  <target_organism>  (253) 
Homo sapiens

>  <pchembl_median>  (253) 
7.7

$$$$
CHEMBL1632210
     RDKit          2D

 34 38  0  0  0  0  0  0  0  0999 V2000
    3.0000    0.0000    0.0000 C   0  0  0  0  0  0  0  0  0  0  0  0
    1.5000    0.0000    0.0000 C   0  0  0  0  0  0  0  0  0  0  0  0
    0.7500   -1.2990    0.0000 C   0  0  0  0  0  0  0  0  0  0  0  0
   -0.7500   -1.2990    0.0000 C   0  0  0  0  0  0  0  0  0  0  0  0
   -1.5000    0.0000    0.0000 C   0  0  0  0  0  0  0  0  0  0  0  0
   -3.0000    0.0000    0.0000 C   0  0  0  0  0  0  0  0  0  0  0  0
   -3.7500   -1.2990    0.0000 N   0  0  0  0  0  0  0  0  0  0  0  0
   -5.2500   -1.2990    0.0000 C   0  0  0  0  0  0  0  0  0  0  0  0
   -6.0000   -2.5981    0.0000 C   0  0  0  0  0  0  0  0  0  0  0  0
   -5.2500   -3.8971    0.0000 N   0  0  0  0  0  0  0  0  0  0  0  0
   -6.0000   -5.1962    0.0000 C   0  0  0  0  0  0  0  0  0  0  0  0
   -7.5000   -5.1962    0.0000 C   0  0  0  0  0  0  0  0  0  0  0  0
   -8.2500   -6.4952    0.0000 C   0  0  0  0  0  0  0  0  0  0  0  0
   -9.7500   -6.4952    0.0000 C   0  0  0  0  0  0  0  0  0  0  0  0
  -10.5000   -7.7942    0.0000 C   0  0  0  0  0  0  0  0  0  0  0  0
   -9.7500   -9.0933    0.0000 C   0  0  0  0  0  0  0  0  0  0  0  0
   -8.2500   -9.0933    0.0000 C   0  0  0  0  0  0  0  0  0  0  0  0
   -7.5000  -10.3923    0.0000 N   0  0  0  0  0  0  0  0  0  0  0  0
   -8.2500  -11.6913    0.0000 C   0  0  0  0  0  0  0  0  0  0  0  0
   -9.7500  -11.6913    0.0000 O   0  0  0  0  0  0  0  0  0  0  0  0
   -7.5000  -12.9904    0.0000 C   0  0  0  0  0  0  0  0  0  0  0  0
   -8.2500  -14.2894    0.0000 C   0  0  0  0  0  0  0  0  0  0  0  0
   -7.5000  -15.5885    0.0000 C   0  0  0  0  0  0  0  0  0  0  0  0
   -6.0000  -15.5885    0.0000 C   0  0  0  0  0  0  0  0  0  0  0  0
   -5.2500  -14.2894    0.0000 C   0  0  0  0  0  0  0  0  0  0  0  0
   -6.0000  -12.9904    0.0000 C   0  0  0  0  0  0  0  0  0  0  0  0
   -7.5000   -7.7942    0.0000 C   0  0  0  0  0  0  0  0  0  0  0  0
   -3.7500   -3.8971    0.0000 C   0  0  0  0  0  0  0  0  0  0  0  0
   -3.0000   -2.5981    0.0000 C   0  0  0  0  0  0  0  0  0  0  0  0
   -3.7500    1.2990    0.0000 C   0  0  0  0  0  0  0  0  0  0  0  0
   -3.0000    2.5981    0.0000 C   0  0  0  0  0  0  0  0  0  0  0  0
   -1.5000    2.5981    0.0000 C   0  0  0  0  0  0  0  0  0  0  0  0
   -0.7500    1.2990    0.0000 C   0  0  0  0  0  0  0  0  0  0  0  0
    0.7500    1.2990    0.0000 N   0  0  0  0  0  0  0  0  0  0  0  0
  1  2  1  0
  2  3  2  0
  3  4  1  0
  4  5  2  0
  5  6  1  0
  6  7  1  0
  7  8  1  0
  8  9  1  0
  9 10  1  0
 10 11  1  0
 11 12  1  0
 12 13  1  0
 13 14  2  0
 14 15  1  0
 15 16  2  0
 16 17  1  0
 17 18  1  0
 18 19  1  0
 19 20  2  0
 19 21  1  0
 21 22  2  0
 22 23  1  0
 23 24  2  0
 24 25  1  0
 25 26  2  0
 17 27  2  0
 10 28  1  0
 28 29  1  0
  6 30  2  0
 30 31  1  0
 31 32  2  0
 32 33  1  0
 33 34  2  0
 34  2  1  0
 33  5  1  0
 29  7  1  0
 27 13  1  0
 26 21  1  0
M  END
>  <assay_chembl_id>  (254) 
CHEMBL1635451

>  <assay_description>  (254) 
Binding affinity to human recombinant 5-HT2B receptor by radioligand displacement assay

>  <parent_molecule_chembl_id>  (254) 
CHEMBL1632210

>  <canonical_smiles>  (254) 
Cc1ccc2c(N3CCN(CCc4cccc(NC(=O)c5ccccc5)c4)CC3)cccc2n1

>  <standard_type>  (254) 
Ki

>  <standard_relation>  (254) 
=

>  <standard_value>  (254) 
125.89

>  <standard_units>  (254) 
nM

>  <target_pref_name>  (254) 
Serotonin 2b (5-HT2b) receptor

>  <target_chembl_id>  (254) 
CHEMBL1833

>  <target_organism>  (254) 
Homo sapiens

>  <pchembl_median>  (254) 
5.0

$$$$
CHEMBL1632206
     RDKit          2D

 29 32  0  0  0  0  0  0  0  0999 V2000
    9.7500  -11.6913    0.0000 C   0  0  0  0  0  0  0  0  0  0  0  0
    8.2500  -11.6913    0.0000 C   0  0  0  0  0  0  0  0  0  0  0  0
    7.5000  -12.9904    0.0000 O   0  0  0  0  0  0  0  0  0  0  0  0
    7.5000  -10.3923    0.0000 N   0  0  0  0  0  0  0  0  0  0  0  0
    6.0000  -10.3923    0.0000 C   0  0  0  0  0  0  0  0  0  0  0  0
    5.2500  -11.6913    0.0000 C   0  0  0  0  0  0  0  0  0  0  0  0
    3.7500  -11.6913    0.0000 C   0  0  0  0  0  0  0  0  0  0  0  0
    3.0000  -10.3923    0.0000 C   0  0  0  0  0  0  0  0  0  0  0  0
    3.7500   -9.0933    0.0000 C   0  0  0  0  0  0  0  0  0  0  0  0
    3.0000   -7.7942    0.0000 C   0  0  0  0  0  0  0  0  0  0  0  0
    3.7500   -6.4952    0.0000 C   0  0  0  0  0  0  0  0  0  0  0  0
    3.0000   -5.1962    0.0000 N   0  0  0  0  0  0  0  0  0  0  0  0
    3.7500   -3.8971    0.0000 C   0  0  0  0  0  0  0  0  0  0  0  0
    3.0000   -2.5981    0.0000 C   0  0  0  0  0  0  0  0  0  0  0  0
    1.5000   -2.5981    0.0000 N   0  0  0  0  0  0  0  0  0  0  0  0
    0.7500   -1.2990    0.0000 C   0  0  0  0  0  0  0  0  0  0  0  0
    1.5000    0.0000    0.0000 C   0  0  0  0  0  0  0  0  0  0  0  0
    0.7500    1.2990    0.0000 C   0  0  0  0  0  0  0  0  0  0  0  0
   -0.7500    1.2990    0.0000 C   0  0  0  0  0  0  0  0  0  0  0  0
   -1.5000    0.0000    0.0000 C   0  0  0  0  0  0  0  0  0  0  0  0
   -3.0000    0.0000    0.0000 N   0  0  0  0  0  0  0  0  0  0  0  0
   -3.7500   -1.2990    0.0000 C   0  0  0  0  0  0  0  0  0  0  0  0
   -5.2500   -1.2990    0.0000 C   0  0  0  0  0  0  0  0  0  0  0  0
   -3.0000   -2.5981    0.0000 C   0  0  0  0  0  0  0  0  0  0  0  0
   -1.5000   -2.5981    0.0000 C   0  0  0  0  0  0  0  0  0  0  0  0
   -0.7500   -1.2990    0.0000 C   0  0  0  0  0  0  0  0  0  0  0  0
    0.7500   -3.8971    0.0000 C   0  0  0  0  0  0  0  0  0  0  0  0
    1.5000   -5.1962    0.0000 C   0  0  0  0  0  0  0  0  0  0  0  0
    5.2500   -9.0933    0.0000 C   0  0  0  0  0  0  0  0  0  0  0  0
  1  2  1  0
  2  3  2  0
  2  4  1  0
  4  5  1  0
  5  6  2  0
  6  7  1  0
  7  8  2  0
  8  9  1  0
  9 10  1  0
 10 11  1  0
 11 12  1  0
 12 13  1  0
 13 14  1  0
 14 15  1  0
 15 16  1  0
 16 17  2  0
 17 18  1  0
 18 19  2  0
 19 20  1  0
 20 21  2  0
 21 22  1  0
 22 23  1  0
 22 24  2  0
 24 25  1  0
 25 26  2  0
 15 27  1  0
 27 28  1  0
  9 29  2  0
 29  5  1  0
 28 12  1  0
 26 16  1  0
 26 20  1  0
M  END
>  <assay_chembl_id>  (255) 
CHEMBL1635451

>  <assay_description>  (255) 
Binding affinity to human recombinant 5-HT2B receptor by radioligand displacement assay

>  <parent_molecule_chembl_id>  (255) 
CHEMBL1632206

>  <canonical_smiles>  (255) 
CC(=O)Nc1cccc(CCN2CCN(c3cccc4nc(C)ccc34)CC2)c1

>  <standard_type>  (255) 
Ki

>  <standard_relation>  (255) 
=

>  <standard_value>  (255) 
158.49

>  <standard_units>  (255) 
nM

>  <target_pref_name>  (255) 
Serotonin 2b (5-HT2b) receptor

>  <target_chembl_id>  (255) 
CHEMBL1833

>  <target_organism>  (255) 
Homo sapiens

>  <pchembl_median>  (255) 
6.4

$$$$
CHEMBL1631532
     RDKit          2D

 30 33  0  0  0  0  0  0  0  0999 V2000
   10.5000  -12.9904    0.0000 C   0  0  0  0  0  0  0  0  0  0  0  0
    9.7500  -11.6913    0.0000 O   0  0  0  0  0  0  0  0  0  0  0  0
    8.2500  -11.6913    0.0000 C   0  0  0  0  0  0  0  0  0  0  0  0
    7.5000  -12.9904    0.0000 O   0  0  0  0  0  0  0  0  0  0  0  0
    7.5000  -10.3923    0.0000 N   0  0  0  0  0  0  0  0  0  0  0  0
    6.0000  -10.3923    0.0000 C   0  0  0  0  0  0  0  0  0  0  0  0
    5.2500  -11.6913    0.0000 C   0  0  0  0  0  0  0  0  0  0  0  0
    3.7500  -11.6913    0.0000 C   0  0  0  0  0  0  0  0  0  0  0  0
    3.0000  -10.3923    0.0000 C   0  0  0  0  0  0  0  0  0  0  0  0
    3.7500   -9.0933    0.0000 C   0  0  0  0  0  0  0  0  0  0  0  0
    3.0000   -7.7942    0.0000 C   0  0  0  0  0  0  0  0  0  0  0  0
    3.7500   -6.4952    0.0000 C   0  0  0  0  0  0  0  0  0  0  0  0
    3.0000   -5.1962    0.0000 N   0  0  0  0  0  0  0  0  0  0  0  0
    3.7500   -3.8971    0.0000 C   0  0  0  0  0  0  0  0  0  0  0  0
    3.0000   -2.5981    0.0000 C   0  0  0  0  0  0  0  0  0  0  0  0
    1.5000   -2.5981    0.0000 N   0  0  0  0  0  0  0  0  0  0  0  0
    0.7500   -1.2990    0.0000 C   0  0  0  0  0  0  0  0  0  0  0  0
    1.5000    0.0000    0.0000 C   0  0  0  0  0  0  0  0  0  0  0  0
    0.7500    1.2990    0.0000 C   0  0  0  0  0  0  0  0  0  0  0  0
   -0.7500    1.2990    0.0000 C   0  0  0  0  0  0  0  0  0  0  0  0
   -1.5000    0.0000    0.0000 C   0  0  0  0  0  0  0  0  0  0  0  0
   -3.0000    0.0000    0.0000 N   0  0  0  0  0  0  0  0  0  0  0  0
   -3.7500   -1.2990    0.0000 C   0  0  0  0  0  0  0  0  0  0  0  0
   -5.2500   -1.2990    0.0000 C   0  0  0  0  0  0  0  0  0  0  0  0
   -3.0000   -2.5981    0.0000 C   0  0  0  0  0  0  0  0  0  0  0  0
   -1.5000   -2.5981    0.0000 C   0  0  0  0  0  0  0  0  0  0  0  0
   -0.7500   -1.2990    0.0000 C   0  0  0  0  0  0  0  0  0  0  0  0
    0.7500   -3.8971    0.0000 C   0  0  0  0  0  0  0  0  0  0  0  0
    1.5000   -5.1962    0.0000 C   0  0  0  0  0  0  0  0  0  0  0  0
    5.2500   -9.0933    0.0000 C   0  0  0  0  0  0  0  0  0  0  0  0
  1  2  1  0
  2  3  1  0
  3  4  2  0
  3  5  1  0
  5  6  1  0
  6  7  2  0
  7  8  1  0
  8  9  2  0
  9 10  1  0
 10 11  1  0
 11 12  1  0
 12 13  1  0
 13 14  1  0
 14 15  1  0
 15 16  1  0
 16 17  1  0
 17 18  2  0
 18 19  1  0
 19 20  2  0
 20 21  1  0
 21 22  2  0
 22 23  1  0
 23 24  1  0
 23 25  2  0
 25 26  1  0
 26 27  2  0
 16 28  1  0
 28 29  1  0
 10 30  2  0
 30  6  1  0
 29 13  1  0
 27 17  1  0
 27 21  1  0
M  END
>  <assay_chembl_id>  (256) 
CHEMBL1635451

>  <assay_description>  (256) 
Binding affinity to human recombinant 5-HT2B receptor by radioligand displacement assay

>  <parent_molecule_chembl_id>  (256) 
CHEMBL1631532

>  <canonical_smiles>  (256) 
COC(=O)Nc1cccc(CCN2CCN(c3cccc4nc(C)ccc34)CC2)c1

>  <standard_type>  (256) 
Ki

>  <standard_relation>  (256) 
=

>  <standard_value>  (256) 
199.53

>  <standard_units>  (256) 
nM

>  <target_pref_name>  (256) 
Serotonin 2b (5-HT2b) receptor

>  <target_chembl_id>  (256) 
CHEMBL1833

>  <target_organism>  (256) 
Homo sapiens

>  <pchembl_median>  (256) 
7.6

$$$$
CHEMBL1632220
     RDKit          2D

 31 34  0  0  0  0  0  0  0  0999 V2000
   12.0000  -12.9904    0.0000 C   0  0  0  0  0  0  0  0  0  0  0  0
   10.5000  -12.9904    0.0000 C   0  0  0  0  0  0  0  0  0  0  0  0
    9.7500  -11.6913    0.0000 N   0  0  0  0  0  0  0  0  0  0  0  0
    8.2500  -11.6913    0.0000 C   0  0  0  0  0  0  0  0  0  0  0  0
    7.5000  -12.9904    0.0000 O   0  0  0  0  0  0  0  0  0  0  0  0
    7.5000  -10.3923    0.0000 N   0  0  0  0  0  0  0  0  0  0  0  0
    6.0000  -10.3923    0.0000 C   0  0  0  0  0  0  0  0  0  0  0  0
    5.2500  -11.6913    0.0000 C   0  0  0  0  0  0  0  0  0  0  0  0
    3.7500  -11.6913    0.0000 C   0  0  0  0  0  0  0  0  0  0  0  0
    3.0000  -10.3923    0.0000 C   0  0  0  0  0  0  0  0  0  0  0  0
    3.7500   -9.0933    0.0000 C   0  0  0  0  0  0  0  0  0  0  0  0
    3.0000   -7.7942    0.0000 C   0  0  0  0  0  0  0  0  0  0  0  0
    3.7500   -6.4952    0.0000 C   0  0  0  0  0  0  0  0  0  0  0  0
    3.0000   -5.1962    0.0000 N   0  0  0  0  0  0  0  0  0  0  0  0
    3.7500   -3.8971    0.0000 C   0  0  0  0  0  0  0  0  0  0  0  0
    3.0000   -2.5981    0.0000 C   0  0  0  0  0  0  0  0  0  0  0  0
    1.5000   -2.5981    0.0000 N   0  0  0  0  0  0  0  0  0  0  0  0
    0.7500   -1.2990    0.0000 C   0  0  0  0  0  0  0  0  0  0  0  0
    1.5000    0.0000    0.0000 C   0  0  0  0  0  0  0  0  0  0  0  0
    0.7500    1.2990    0.0000 C   0  0  0  0  0  0  0  0  0  0  0  0
   -0.7500    1.2990    0.0000 C   0  0  0  0  0  0  0  0  0  0  0  0
   -1.5000    0.0000    0.0000 C   0  0  0  0  0  0  0  0  0  0  0  0
   -3.0000    0.0000    0.0000 N   0  0  0  0  0  0  0  0  0  0  0  0
   -3.7500   -1.2990    0.0000 C   0  0  0  0  0  0  0  0  0  0  0  0
   -5.2500   -1.2990    0.0000 C   0  0  0  0  0  0  0  0  0  0  0  0
   -3.0000   -2.5981    0.0000 C   0  0  0  0  0  0  0  0  0  0  0  0
   -1.5000   -2.5981    0.0000 C   0  0  0  0  0  0  0  0  0  0  0  0
   -0.7500   -1.2990    0.0000 C   0  0  0  0  0  0  0  0  0  0  0  0
    0.7500   -3.8971    0.0000 C   0  0  0  0  0  0  0  0  0  0  0  0
    1.5000   -5.1962    0.0000 C   0  0  0  0  0  0  0  0  0  0  0  0
    5.2500   -9.0933    0.0000 C   0  0  0  0  0  0  0  0  0  0  0  0
  1  2  1  0
  2  3  1  0
  3  4  1  0
  4  5  2  0
  4  6  1  0
  6  7  1  0
  7  8  2  0
  8  9  1  0
  9 10  2  0
 10 11  1  0
 11 12  1  0
 12 13  1  0
 13 14  1  0
 14 15  1  0
 15 16  1  0
 16 17  1  0
 17 18  1  0
 18 19  2  0
 19 20  1  0
 20 21  2  0
 21 22  1  0
 22 23  2  0
 23 24  1  0
 24 25  1  0
 24 26  2  0
 26 27  1  0
 27 28  2  0
 17 29  1  0
 29 30  1  0
 11 31  2  0
 31  7  1  0
 30 14  1  0
 28 18  1  0
 28 22  1  0
M  END
>  <assay_chembl_id>  (257) 
CHEMBL1635451

>  <assay_description>  (257) 
Binding affinity to human recombinant 5-HT2B receptor by radioligand displacement assay

>  <parent_molecule_chembl_id>  (257) 
CHEMBL1632220

>  <canonical_smiles>  (257) 
CCNC(=O)Nc1cccc(CCN2CCN(c3cccc4nc(C)ccc34)CC2)c1

>  <standard_type>  (257) 
Ki

>  <standard_relation>  (257) 
=

>  <standard_value>  (257) 
398.11

>  <standard_units>  (257) 
nM

>  <target_pref_name>  (257) 
Serotonin 2b (5-HT2b) receptor

>  <target_chembl_id>  (257) 
CHEMBL1833

>  <target_organism>  (257) 
Homo sapiens

>  <pchembl_median>  (257) 
7.05

$$$$
CHEMBL1631535
     RDKit          2D

 30 33  0  0  0  0  0  0  0  0999 V2000
    3.0000    0.0000    0.0000 C   0  0  0  0  0  0  0  0  0  0  0  0
    1.5000    0.0000    0.0000 C   0  0  0  0  0  0  0  0  0  0  0  0
    0.7500   -1.2990    0.0000 C   0  0  0  0  0  0  0  0  0  0  0  0
   -0.7500   -1.2990    0.0000 C   0  0  0  0  0  0  0  0  0  0  0  0
   -1.5000    0.0000    0.0000 C   0  0  0  0  0  0  0  0  0  0  0  0
   -3.0000    0.0000    0.0000 C   0  0  0  0  0  0  0  0  0  0  0  0
   -3.7500   -1.2990    0.0000 N   0  0  0  0  0  0  0  0  0  0  0  0
   -5.2500   -1.2990    0.0000 C   0  0  0  0  0  0  0  0  0  0  0  0
   -6.0000   -2.5981    0.0000 C   0  0  0  0  0  0  0  0  0  0  0  0
   -5.2500   -3.8971    0.0000 N   0  0  0  0  0  0  0  0  0  0  0  0
   -6.0000   -5.1962    0.0000 C   0  0  0  0  0  0  0  0  0  0  0  0
   -7.5000   -5.1962    0.0000 C   0  0  0  0  0  0  0  0  0  0  0  0
   -8.2500   -6.4952    0.0000 C   0  0  0  0  0  0  0  0  0  0  0  0
   -9.7500   -6.4952    0.0000 C   0  0  0  0  0  0  0  0  0  0  0  0
  -10.5000   -7.7942    0.0000 C   0  0  0  0  0  0  0  0  0  0  0  0
   -9.7500   -9.0933    0.0000 C   0  0  0  0  0  0  0  0  0  0  0  0
   -8.2500   -9.0933    0.0000 C   0  0  0  0  0  0  0  0  0  0  0  0
   -7.5000  -10.3923    0.0000 N   0  0  0  0  0  0  0  0  0  0  0  0
   -8.2500  -11.6913    0.0000 S   0  0  0  0  0  0  0  0  0  0  0  0
   -9.0000  -12.9904    0.0000 C   0  0  0  0  0  0  0  0  0  0  0  0
   -9.5490  -10.9413    0.0000 O   0  0  0  0  0  0  0  0  0  0  0  0
   -6.9510  -12.4413    0.0000 O   0  0  0  0  0  0  0  0  0  0  0  0
   -7.5000   -7.7942    0.0000 C   0  0  0  0  0  0  0  0  0  0  0  0
   -3.7500   -3.8971    0.0000 C   0  0  0  0  0  0  0  0  0  0  0  0
   -3.0000   -2.5981    0.0000 C   0  0  0  0  0  0  0  0  0  0  0  0
   -3.7500    1.2990    0.0000 C   0  0  0  0  0  0  0  0  0  0  0  0
   -3.0000    2.5981    0.0000 C   0  0  0  0  0  0  0  0  0  0  0  0
   -1.5000    2.5981    0.0000 C   0  0  0  0  0  0  0  0  0  0  0  0
   -0.7500    1.2990    0.0000 C   0  0  0  0  0  0  0  0  0  0  0  0
    0.7500    1.2990    0.0000 N   0  0  0  0  0  0  0  0  0  0  0  0
  1  2  1  0
  2  3  2  0
  3  4  1  0
  4  5  2  0
  5  6  1  0
  6  7  1  0
  7  8  1  0
  8  9  1  0
  9 10  1  0
 10 11  1  0
 11 12  1  0
 12 13  1  0
 13 14  2  0
 14 15  1  0
 15 16  2  0
 16 17  1  0
 17 18  1  0
 18 19  1  0
 19 20  1  0
 19 21  2  0
 19 22  2  0
 17 23  2  0
 10 24  1  0
 24 25  1  0
  6 26  2  0
 26 27  1  0
 27 28  2  0
 28 29  1  0
 29 30  2  0
 30  2  1  0
 29  5  1  0
 25  7  1  0
 23 13  1  0
M  END
>  <assay_chembl_id>  (258) 
CHEMBL1635451

>  <assay_description>  (258) 
Binding affinity to human recombinant 5-HT2B receptor by radioligand displacement assay

>  <parent_molecule_chembl_id>  (258) 
CHEMBL1631535

>  <canonical_smiles>  (258) 
Cc1ccc2c(N3CCN(CCc4cccc(NS(C)(=O)=O)c4)CC3)cccc2n1

>  <standard_type>  (258) 
Ki

>  <standard_relation>  (258) 
=

>  <standard_value>  (258) 
398.11

>  <standard_units>  (258) 
nM

>  <target_pref_name>  (258) 
Serotonin 2b (5-HT2b) receptor

>  <target_chembl_id>  (258) 
CHEMBL1833

>  <target_organism>  (258) 
Homo sapiens

>  <pchembl_median>  (258) 
7.47

$$$$
CHEMBL1631540
     RDKit          2D

 31 35  0  0  0  0  0  0  0  0999 V2000
    3.0000    0.0000    0.0000 C   0  0  0  0  0  0  0  0  0  0  0  0
    1.5000    0.0000    0.0000 C   0  0  0  0  0  0  0  0  0  0  0  0
    0.7500   -1.2990    0.0000 C   0  0  0  0  0  0  0  0  0  0  0  0
   -0.7500   -1.2990    0.0000 C   0  0  0  0  0  0  0  0  0  0  0  0
   -1.5000    0.0000    0.0000 C   0  0  0  0  0  0  0  0  0  0  0  0
   -3.0000    0.0000    0.0000 C   0  0  0  0  0  0  0  0  0  0  0  0
   -3.7500   -1.2990    0.0000 N   0  0  0  0  0  0  0  0  0  0  0  0
   -5.2500   -1.2990    0.0000 C   0  0  0  0  0  0  0  0  0  0  0  0
   -6.0000   -2.5981    0.0000 C   0  0  0  0  0  0  0  0  0  0  0  0
   -5.2500   -3.8971    0.0000 N   0  0  0  0  0  0  0  0  0  0  0  0
   -6.0000   -5.1962    0.0000 C   0  0  0  0  0  0  0  0  0  0  0  0
   -7.5000   -5.1962    0.0000 C   0  0  0  0  0  0  0  0  0  0  0  0
   -8.2500   -6.4952    0.0000 C   0  0  0  0  0  0  0  0  0  0  0  0
   -9.7500   -6.4952    0.0000 C   0  0  0  0  0  0  0  0  0  0  0  0
  -10.5000   -7.7942    0.0000 C   0  0  0  0  0  0  0  0  0  0  0  0
   -9.7500   -9.0933    0.0000 C   0  0  0  0  0  0  0  0  0  0  0  0
   -8.2500   -9.0933    0.0000 C   0  0  0  0  0  0  0  0  0  0  0  0
   -7.5000  -10.3923    0.0000 N   0  0  0  0  0  0  0  0  0  0  0  0
   -6.0082  -10.5491    0.0000 C   0  0  0  0  0  0  0  0  0  0  0  0
   -5.6963  -12.0163    0.0000 C   0  0  0  0  0  0  0  0  0  0  0  0
   -6.9954  -12.7663    0.0000 N   0  0  0  0  0  0  0  0  0  0  0  0
   -8.1101  -11.7626    0.0000 C   0  0  0  0  0  0  0  0  0  0  0  0
   -9.5773  -12.0745    0.0000 O   0  0  0  0  0  0  0  0  0  0  0  0
   -7.5000   -7.7942    0.0000 C   0  0  0  0  0  0  0  0  0  0  0  0
   -3.7500   -3.8971    0.0000 C   0  0  0  0  0  0  0  0  0  0  0  0
   -3.0000   -2.5981    0.0000 C   0  0  0  0  0  0  0  0  0  0  0  0
   -3.7500    1.2990    0.0000 C   0  0  0  0  0  0  0  0  0  0  0  0
   -3.0000    2.5981    0.0000 C   0  0  0  0  0  0  0  0  0  0  0  0
   -1.5000    2.5981    0.0000 C   0  0  0  0  0  0  0  0  0  0  0  0
   -0.7500    1.2990    0.0000 C   0  0  0  0  0  0  0  0  0  0  0  0
    0.7500    1.2990    0.0000 N   0  0  0  0  0  0  0  0  0  0  0  0
  1  2  1  0
  2  3  2  0
  3  4  1  0
  4  5  2  0
  5  6  1  0
  6  7  1  0
  7  8  1  0
  8  9  1  0
  9 10  1  0
 10 11  1  0
 11 12  1  0
 12 13  1  0
 13 14  2  0
 14 15  1  0
 15 16  2  0
 16 17  1  0
 17 18  1  0
 18 19  1  0
 19 20  1  0
 20 21  1  0
 21 22  1  0
 22 23  2  0
 17 24  2  0
 10 25  1  0
 25 26  1  0
  6 27  2  0
 27 28  1  0
 28 29  2  0
 29 30  1  0
 30 31  2  0
 31  2  1  0
 30  5  1  0
 26  7  1  0
 24 13  1  0
 22 18  1  0
M  END
>  <assay_chembl_id>  (259) 
CHEMBL1635451

>  <assay_description>  (259) 
Binding affinity to human recombinant 5-HT2B receptor by radioligand displacement assay

>  <parent_molecule_chembl_id>  (259) 
CHEMBL1631540

>  <canonical_smiles>  (259) 
Cc1ccc2c(N3CCN(CCc4cccc(N5CCNC5=O)c4)CC3)cccc2n1

>  <standard_type>  (259) 
Ki

>  <standard_relation>  (259) 
=

>  <standard_value>  (259) 
501.19

>  <standard_units>  (259) 
nM

>  <target_pref_name>  (259) 
Serotonin 2b (5-HT2b) receptor

>  <target_chembl_id>  (259) 
CHEMBL1833

>  <target_organism>  (259) 
Homo sapiens

>  <pchembl_median>  (259) 
7.0

$$$$
CHEMBL1632217
     RDKit          2D

 34 38  0  0  0  0  0  0  0  0999 V2000
    3.0000    0.0000    0.0000 C   0  0  0  0  0  0  0  0  0  0  0  0
    1.5000    0.0000    0.0000 C   0  0  0  0  0  0  0  0  0  0  0  0
    0.7500   -1.2990    0.0000 C   0  0  0  0  0  0  0  0  0  0  0  0
   -0.7500   -1.2990    0.0000 C   0  0  0  0  0  0  0  0  0  0  0  0
   -1.5000    0.0000    0.0000 C   0  0  0  0  0  0  0  0  0  0  0  0
   -3.0000    0.0000    0.0000 C   0  0  0  0  0  0  0  0  0  0  0  0
   -3.7500   -1.2990    0.0000 N   0  0  0  0  0  0  0  0  0  0  0  0
   -5.2500   -1.2990    0.0000 C   0  0  0  0  0  0  0  0  0  0  0  0
   -6.0000   -2.5981    0.0000 C   0  0  0  0  0  0  0  0  0  0  0  0
   -5.2500   -3.8971    0.0000 N   0  0  0  0  0  0  0  0  0  0  0  0
   -6.0000   -5.1962    0.0000 C   0  0  0  0  0  0  0  0  0  0  0  0
   -7.5000   -5.1962    0.0000 C   0  0  0  0  0  0  0  0  0  0  0  0
   -8.2500   -6.4952    0.0000 C   0  0  0  0  0  0  0  0  0  0  0  0
   -9.7500   -6.4952    0.0000 C   0  0  0  0  0  0  0  0  0  0  0  0
  -10.5000   -7.7942    0.0000 C   0  0  0  0  0  0  0  0  0  0  0  0
   -9.7500   -9.0933    0.0000 C   0  0  0  0  0  0  0  0  0  0  0  0
   -8.2500   -9.0933    0.0000 C   0  0  0  0  0  0  0  0  0  0  0  0
   -7.5000  -10.3923    0.0000 N   0  0  0  0  0  0  0  0  0  0  0  0
   -8.2500  -11.6913    0.0000 C   0  0  0  0  0  0  0  0  0  0  0  0
   -9.7500  -11.6913    0.0000 O   0  0  0  0  0  0  0  0  0  0  0  0
   -7.5000  -12.9904    0.0000 C   0  0  0  0  0  0  0  0  0  0  0  0
   -8.2500  -14.2894    0.0000 C   0  0  0  0  0  0  0  0  0  0  0  0
   -7.5000  -15.5885    0.0000 N   0  0  0  0  0  0  0  0  0  0  0  0
   -6.0000  -15.5885    0.0000 C   0  0  0  0  0  0  0  0  0  0  0  0
   -5.2500  -14.2894    0.0000 C   0  0  0  0  0  0  0  0  0  0  0  0
   -6.0000  -12.9904    0.0000 N   0  0  0  0  0  0  0  0  0  0  0  0
   -7.5000   -7.7942    0.0000 C   0  0  0  0  0  0  0  0  0  0  0  0
   -3.7500   -3.8971    0.0000 C   0  0  0  0  0  0  0  0  0  0  0  0
   -3.0000   -2.5981    0.0000 C   0  0  0  0  0  0  0  0  0  0  0  0
   -3.7500    1.2990    0.0000 C   0  0  0  0  0  0  0  0  0  0  0  0
   -3.0000    2.5981    0.0000 C   0  0  0  0  0  0  0  0  0  0  0  0
   -1.5000    2.5981    0.0000 C   0  0  0  0  0  0  0  0  0  0  0  0
   -0.7500    1.2990    0.0000 C   0  0  0  0  0  0  0  0  0  0  0  0
    0.7500    1.2990    0.0000 N   0  0  0  0  0  0  0  0  0  0  0  0
  1  2  1  0
  2  3  2  0
  3  4  1  0
  4  5  2  0
  5  6  1  0
  6  7  1  0
  7  8  1  0
  8  9  1  0
  9 10  1  0
 10 11  1  0
 11 12  1  0
 12 13  1  0
 13 14  2  0
 14 15  1  0
 15 16  2  0
 16 17  1  0
 17 18  1  0
 18 19  1  0
 19 20  2  0
 19 21  1  0
 21 22  2  0
 22 23  1  0
 23 24  2  0
 24 25  1  0
 25 26  2  0
 17 27  2  0
 10 28  1  0
 28 29  1  0
  6 30  2  0
 30 31  1  0
 31 32  2  0
 32 33  1  0
 33 34  2  0
 34  2  1  0
 33  5  1  0
 29  7  1  0
 27 13  1  0
 26 21  1  0
M  END
>  <assay_chembl_id>  (260) 
CHEMBL1635451

>  <assay_description>  (260) 
Binding affinity to human recombinant 5-HT2B receptor by radioligand displacement assay

>  <parent_molecule_chembl_id>  (260) 
CHEMBL1632217

>  <canonical_smiles>  (260) 
Cc1ccc2c(N3CCN(CCc4cccc(NC(=O)c5cnccn5)c4)CC3)cccc2n1

>  <standard_type>  (260) 
Ki

>  <standard_relation>  (260) 
=

>  <standard_value>  (260) 
794.33

>  <standard_units>  (260) 
nM

>  <target_pref_name>  (260) 
Serotonin 2b (5-HT2b) receptor

>  <target_chembl_id>  (260) 
CHEMBL1833

>  <target_organism>  (260) 
Homo sapiens

>  <pchembl_median>  (260) 
8.6

$$$$
CHEMBL1631542
     RDKit          2D

 31 35  0  0  0  0  0  0  0  0999 V2000
    3.0000    0.0000    0.0000 C   0  0  0  0  0  0  0  0  0  0  0  0
    1.5000    0.0000    0.0000 C   0  0  0  0  0  0  0  0  0  0  0  0
    0.7500   -1.2990    0.0000 C   0  0  0  0  0  0  0  0  0  0  0  0
   -0.7500   -1.2990    0.0000 C   0  0  0  0  0  0  0  0  0  0  0  0
   -1.5000    0.0000    0.0000 C   0  0  0  0  0  0  0  0  0  0  0  0
   -3.0000    0.0000    0.0000 C   0  0  0  0  0  0  0  0  0  0  0  0
   -3.7500   -1.2990    0.0000 N   0  0  0  0  0  0  0  0  0  0  0  0
   -5.2500   -1.2990    0.0000 C   0  0  0  0  0  0  0  0  0  0  0  0
   -6.0000   -2.5981    0.0000 C   0  0  0  0  0  0  0  0  0  0  0  0
   -5.2500   -3.8971    0.0000 N   0  0  0  0  0  0  0  0  0  0  0  0
   -6.0000   -5.1962    0.0000 C   0  0  0  0  0  0  0  0  0  0  0  0
   -7.5000   -5.1962    0.0000 C   0  0  0  0  0  0  0  0  0  0  0  0
   -8.2500   -6.4952    0.0000 C   0  0  0  0  0  0  0  0  0  0  0  0
   -9.7500   -6.4952    0.0000 C   0  0  0  0  0  0  0  0  0  0  0  0
  -10.5000   -7.7942    0.0000 C   0  0  0  0  0  0  0  0  0  0  0  0
   -9.7500   -9.0933    0.0000 C   0  0  0  0  0  0  0  0  0  0  0  0
   -8.2500   -9.0933    0.0000 C   0  0  0  0  0  0  0  0  0  0  0  0
   -7.5000  -10.3923    0.0000 N   0  0  0  0  0  0  0  0  0  0  0  0
   -6.0082  -10.5491    0.0000 C   0  0  0  0  0  0  0  0  0  0  0  0
   -5.6963  -12.0163    0.0000 C   0  0  0  0  0  0  0  0  0  0  0  0
   -6.9954  -12.7663    0.0000 O   0  0  0  0  0  0  0  0  0  0  0  0
   -8.1101  -11.7626    0.0000 C   0  0  0  0  0  0  0  0  0  0  0  0
   -9.5773  -12.0745    0.0000 O   0  0  0  0  0  0  0  0  0  0  0  0
   -7.5000   -7.7942    0.0000 C   0  0  0  0  0  0  0  0  0  0  0  0
   -3.7500   -3.8971    0.0000 C   0  0  0  0  0  0  0  0  0  0  0  0
   -3.0000   -2.5981    0.0000 C   0  0  0  0  0  0  0  0  0  0  0  0
   -3.7500    1.2990    0.0000 C   0  0  0  0  0  0  0  0  0  0  0  0
   -3.0000    2.5981    0.0000 C   0  0  0  0  0  0  0  0  0  0  0  0
   -1.5000    2.5981    0.0000 C   0  0  0  0  0  0  0  0  0  0  0  0
   -0.7500    1.2990    0.0000 C   0  0  0  0  0  0  0  0  0  0  0  0
    0.7500    1.2990    0.0000 N   0  0  0  0  0  0  0  0  0  0  0  0
  1  2  1  0
  2  3  2  0
  3  4  1  0
  4  5  2  0
  5  6  1  0
  6  7  1  0
  7  8  1  0
  8  9  1  0
  9 10  1  0
 10 11  1  0
 11 12  1  0
 12 13  1  0
 13 14  2  0
 14 15  1  0
 15 16  2  0
 16 17  1  0
 17 18  1  0
 18 19  1  0
 19 20  1  0
 20 21  1  0
 21 22  1  0
 22 23  2  0
 17 24  2  0
 10 25  1  0
 25 26  1  0
  6 27  2  0
 27 28  1  0
 28 29  2  0
 29 30  1  0
 30 31  2  0
 31  2  1  0
 30  5  1  0
 26  7  1  0
 24 13  1  0
 22 18  1  0
M  END
>  <assay_chembl_id>  (261) 
CHEMBL1635451

>  <assay_description>  (261) 
Binding affinity to human recombinant 5-HT2B receptor by radioligand displacement assay

>  <parent_molecule_chembl_id>  (261) 
CHEMBL1631542

>  <canonical_smiles>  (261) 
Cc1ccc2c(N3CCN(CCc4cccc(N5CCOC5=O)c4)CC3)cccc2n1

>  <standard_type>  (261) 
Ki

>  <standard_relation>  (261) 
=

>  <standard_value>  (261) 
1258.93

>  <standard_units>  (261) 
nM

>  <target_pref_name>  (261) 
Serotonin 2b (5-HT2b) receptor

>  <target_chembl_id>  (261) 
CHEMBL1833

>  <target_organism>  (261) 
Homo sapiens

>  <pchembl_median>  (261) 
7.52

$$$$
CHEMBL1651090
     RDKit          2D

 14 15  0  0  0  0  0  0  0  0999 V2000
    0.4775   -7.0740    0.0000 O   0  0  0  0  0  0  0  0  0  0  0  0
    1.8478   -6.4639    0.0000 C   0  0  0  0  0  0  0  0  0  0  0  0
    2.0046   -4.9721    0.0000 C   0  0  0  0  0  0  0  0  0  0  0  0
    3.3037   -4.2221    0.0000 C   0  0  0  0  0  0  0  0  0  0  0  0
    2.9918   -2.7549    0.0000 S   0  0  0  0  0  0  0  0  0  0  0  0
    1.5000   -2.5981    0.0000 C   0  0  0  0  0  0  0  0  0  0  0  0
    0.7500   -1.2990    0.0000 C   0  0  0  0  0  0  0  0  0  0  0  0
    1.5000    0.0000    0.0000 C   0  0  0  0  0  0  0  0  0  0  0  0
    0.7500    1.2990    0.0000 C   0  0  0  0  0  0  0  0  0  0  0  0
   -0.7500    1.2990    0.0000 C   0  0  0  0  0  0  0  0  0  0  0  0
   -1.5000    0.0000    0.0000 C   0  0  0  0  0  0  0  0  0  0  0  0
   -0.7500   -1.2990    0.0000 C   0  0  0  0  0  0  0  0  0  0  0  0
   -1.5000   -2.5981    0.0000 O   0  0  0  0  0  0  0  0  0  0  0  0
    0.8899   -3.9684    0.0000 N   0  0  0  0  0  0  0  0  0  0  0  0
  1  2  1  0
  3  2  1  1
  3  4  1  0
  4  5  1  0
  5  6  1  0
  6  7  1  0
  7  8  2  0
  8  9  1  0
  9 10  2  0
 10 11  1  0
 11 12  2  0
 12 13  1  0
  6 14  2  0
 14  3  1  0
 12  7  1  0
M  END
>  <assay_chembl_id>  (262) 
CHEMBL1663916

>  <assay_description>  (262) 
Binding affinity to human 5HT2B receptor by radioligand displacement assay

>  <parent_molecule_chembl_id>  (262) 
CHEMBL1651090

>  <canonical_smiles>  (262) 
OC[C@@H]1CSC(c2ccccc2O)=N1

>  <standard_type>  (262) 
Ki

>  <standard_relation>  (262) 
=

>  <standard_value>  (262) 
1360.0

>  <standard_units>  (262) 
nM

>  <target_pref_name>  (262) 
Serotonin 2b (5-HT2b) receptor

>  <target_chembl_id>  (262) 
CHEMBL1833

>  <target_organism>  (262) 
Homo sapiens

>  <pchembl_median>  (262) 
5.05

$$$$
CHEMBL1651091
     RDKit          2D

 15 16  0  0  0  0  0  0  0  0999 V2000
    0.4775   -7.0740    0.0000 N   0  0  0  0  0  0  0  0  0  0  0  0
    1.8478   -6.4639    0.0000 C   0  0  0  0  0  0  0  0  0  0  0  0
    3.0613   -7.3456    0.0000 O   0  0  0  0  0  0  0  0  0  0  0  0
    2.0046   -4.9721    0.0000 C   0  0  0  0  0  0  0  0  0  0  0  0
    3.3037   -4.2221    0.0000 C   0  0  0  0  0  0  0  0  0  0  0  0
    2.9918   -2.7549    0.0000 S   0  0  0  0  0  0  0  0  0  0  0  0
    1.5000   -2.5981    0.0000 C   0  0  0  0  0  0  0  0  0  0  0  0
    0.7500   -1.2990    0.0000 C   0  0  0  0  0  0  0  0  0  0  0  0
    1.5000    0.0000    0.0000 C   0  0  0  0  0  0  0  0  0  0  0  0
    0.7500    1.2990    0.0000 C   0  0  0  0  0  0  0  0  0  0  0  0
   -0.7500    1.2990    0.0000 C   0  0  0  0  0  0  0  0  0  0  0  0
   -1.5000    0.0000    0.0000 C   0  0  0  0  0  0  0  0  0  0  0  0
   -0.7500   -1.2990    0.0000 C   0  0  0  0  0  0  0  0  0  0  0  0
   -1.5000   -2.5981    0.0000 O   0  0  0  0  0  0  0  0  0  0  0  0
    0.8899   -3.9684    0.0000 N   0  0  0  0  0  0  0  0  0  0  0  0
  1  2  1  0
  2  3  2  0
  2  4  1  0
  4  5  2  0
  5  6  1  0
  6  7  1  0
  7  8  1  0
  8  9  2  0
  9 10  1  0
 10 11  2  0
 11 12  1  0
 12 13  2  0
 13 14  1  0
  7 15  2  0
 15  4  1  0
 13  8  1  0
M  END
>  <assay_chembl_id>  (263) 
CHEMBL1663916

>  <assay_description>  (263) 
Binding affinity to human 5HT2B receptor by radioligand displacement assay

>  <parent_molecule_chembl_id>  (263) 
CHEMBL1651091

>  <canonical_smiles>  (263) 
NC(=O)c1csc(-c2ccccc2O)n1

>  <standard_type>  (263) 
Ki

>  <standard_relation>  (263) 
=

>  <standard_value>  (263) 
1031.0

>  <standard_units>  (263) 
nM

>  <target_pref_name>  (263) 
Serotonin 2b (5-HT2b) receptor

>  <target_chembl_id>  (263) 
CHEMBL1833

>  <target_organism>  (263) 
Homo sapiens

>  <pchembl_median>  (263) 
6.66

$$$$
CHEMBL1651092
     RDKit          2D

 15 16  0  0  0  0  0  0  0  0999 V2000
    0.4775   -7.0740    0.0000 N   0  0  0  0  0  0  0  0  0  0  0  0
    1.8478   -6.4639    0.0000 C   0  0  0  0  0  0  0  0  0  0  0  0
    3.0613   -7.3456    0.0000 O   0  0  0  0  0  0  0  0  0  0  0  0
    2.0046   -4.9721    0.0000 C   0  0  0  0  0  0  0  0  0  0  0  0
    3.3037   -4.2221    0.0000 C   0  0  0  0  0  0  0  0  0  0  0  0
    2.9918   -2.7549    0.0000 S   0  0  0  0  0  0  0  0  0  0  0  0
    1.5000   -2.5981    0.0000 C   0  0  0  0  0  0  0  0  0  0  0  0
    0.7500   -1.2990    0.0000 C   0  0  0  0  0  0  0  0  0  0  0  0
    1.5000    0.0000    0.0000 C   0  0  0  0  0  0  0  0  0  0  0  0
    0.7500    1.2990    0.0000 C   0  0  0  0  0  0  0  0  0  0  0  0
   -0.7500    1.2990    0.0000 C   0  0  0  0  0  0  0  0  0  0  0  0
   -1.5000    0.0000    0.0000 C   0  0  0  0  0  0  0  0  0  0  0  0
   -0.7500   -1.2990    0.0000 C   0  0  0  0  0  0  0  0  0  0  0  0
   -1.5000   -2.5981    0.0000 O   0  0  0  0  0  0  0  0  0  0  0  0
    0.8899   -3.9684    0.0000 N   0  0  0  0  0  0  0  0  0  0  0  0
  1  2  1  0
  2  3  2  0
  2  4  1  0
  4  5  1  0
  5  6  1  0
  6  7  1  0
  7  8  1  0
  8  9  2  0
  9 10  1  0
 10 11  2  0
 11 12  1  0
 12 13  2  0
 13 14  1  0
  7 15  2  0
 15  4  1  0
 13  8  1  0
M  END
>  <assay_chembl_id>  (264) 
CHEMBL1663916

>  <assay_description>  (264) 
Binding affinity to human 5HT2B receptor by radioligand displacement assay

>  <parent_molecule_chembl_id>  (264) 
CHEMBL1651092

>  <canonical_smiles>  (264) 
NC(=O)C1CSC(c2ccccc2O)=N1

>  <standard_type>  (264) 
Ki

>  <standard_relation>  (264) 
=

>  <standard_value>  (264) 
1260.0

>  <standard_units>  (264) 
nM

>  <target_pref_name>  (264) 
Serotonin 2b (5-HT2b) receptor

>  <target_chembl_id>  (264) 
CHEMBL1833

>  <target_organism>  (264) 
Homo sapiens

>  <pchembl_median>  (264) 
5.66

$$$$
CHEMBL1651093
     RDKit          2D

 23 25  0  0  0  0  0  0  0  0999 V2000
    4.6740   -4.8322    0.0000 C   0  0  0  0  0  0  0  0  0  0  0  0
    3.3037   -4.2221    0.0000 C   0  0  0  0  0  0  0  0  0  0  0  0
    2.9918   -2.7549    0.0000 S   0  0  0  0  0  0  0  0  0  0  0  0
    1.5000   -2.5981    0.0000 C   0  0  0  0  0  0  0  0  0  0  0  0
    0.7500   -1.2990    0.0000 C   0  0  0  0  0  0  0  0  0  0  0  0
    1.5000    0.0000    0.0000 C   0  0  0  0  0  0  0  0  0  0  0  0
    0.7500    1.2990    0.0000 C   0  0  0  0  0  0  0  0  0  0  0  0
   -0.7500    1.2990    0.0000 C   0  0  0  0  0  0  0  0  0  0  0  0
   -1.5000    0.0000    0.0000 C   0  0  0  0  0  0  0  0  0  0  0  0
   -0.7500   -1.2990    0.0000 C   0  0  0  0  0  0  0  0  0  0  0  0
   -1.5000   -2.5981    0.0000 O   0  0  0  0  0  0  0  0  0  0  0  0
    0.8899   -3.9684    0.0000 N   0  0  0  0  0  0  0  0  0  0  0  0
    2.0046   -4.9721    0.0000 C   0  0  0  0  0  0  0  0  0  0  0  0
    1.8478   -6.4639    0.0000 C   0  0  0  0  0  0  0  0  0  0  0  0
    2.9625   -7.4676    0.0000 S   0  0  0  0  0  0  0  0  0  0  0  0
    2.3524   -8.8379    0.0000 C   0  0  0  0  0  0  0  0  0  0  0  0
    0.8606   -8.6811    0.0000 C   0  0  0  0  0  0  0  0  0  0  0  0
    0.8606  -10.1811    0.0000 C   0  0  0  0  0  0  0  0  0  0  0  0
   -0.6311   -8.8379    0.0000 C   0  0  0  0  0  0  0  0  0  0  0  0
   -1.2412  -10.2082    0.0000 O   0  0  0  0  0  0  0  0  0  0  0  0
   -1.5128   -7.6244    0.0000 O   0  0  0  0  0  0  0  0  0  0  0  0
    0.5488   -7.2139    0.0000 N   0  0  0  0  0  0  0  0  0  0  0  0
   -0.8215   -6.6038    0.0000 C   0  0  0  0  0  0  0  0  0  0  0  0
  2  1  1  1
  2  3  1  0
  3  4  1  0
  4  5  1  0
  5  6  2  0
  6  7  1  0
  7  8  2  0
  8  9  1  0
  9 10  2  0
 10 11  1  0
  4 12  2  0
 13 12  1  6
 13 14  1  0
 14 15  1  6
 15 16  1  0
 16 17  1  0
 17 18  1  1
 17 19  1  0
 19 20  2  0
 19 21  1  0
 17 22  1  0
 22 23  1  0
 13  2  1  0
 22 14  1  0
 10  5  1  0
M  END
>  <assay_chembl_id>  (265) 
CHEMBL1663916

>  <assay_description>  (265) 
Binding affinity to human 5HT2B receptor by radioligand displacement assay

>  <parent_molecule_chembl_id>  (265) 
CHEMBL1651093

>  <canonical_smiles>  (265) 
C[C@@H]1SC(c2ccccc2O)=N[C@H]1[C@@H]1SC[C@](C)(C(=O)O)N1C

>  <standard_type>  (265) 
Ki

>  <standard_relation>  (265) 
=

>  <standard_value>  (265) 
3922.0

>  <standard_units>  (265) 
nM

>  <target_pref_name>  (265) 
Serotonin 2b (5-HT2b) receptor

>  <target_chembl_id>  (265) 
CHEMBL1833

>  <target_organism>  (265) 
Homo sapiens

>  <pchembl_median>  (265) 
6.68

$$$$
CHEMBL1651094
     RDKit          2D

 23 25  0  0  0  0  0  0  0  0999 V2000
    4.6740   -4.8322    0.0000 C   0  0  0  0  0  0  0  0  0  0  0  0
    3.3037   -4.2221    0.0000 C   0  0  0  0  0  0  0  0  0  0  0  0
    2.9918   -2.7549    0.0000 S   0  0  0  0  0  0  0  0  0  0  0  0
    1.5000   -2.5981    0.0000 C   0  0  0  0  0  0  0  0  0  0  0  0
    0.7500   -1.2990    0.0000 C   0  0  0  0  0  0  0  0  0  0  0  0
    1.5000    0.0000    0.0000 C   0  0  0  0  0  0  0  0  0  0  0  0
    0.7500    1.2990    0.0000 C   0  0  0  0  0  0  0  0  0  0  0  0
   -0.7500    1.2990    0.0000 C   0  0  0  0  0  0  0  0  0  0  0  0
   -1.5000    0.0000    0.0000 C   0  0  0  0  0  0  0  0  0  0  0  0
   -0.7500   -1.2990    0.0000 C   0  0  0  0  0  0  0  0  0  0  0  0
   -1.5000   -2.5981    0.0000 O   0  0  0  0  0  0  0  0  0  0  0  0
    0.8899   -3.9684    0.0000 N   0  0  0  0  0  0  0  0  0  0  0  0
    2.0046   -4.9721    0.0000 C   0  0  0  0  0  0  0  0  0  0  0  0
    1.8478   -6.4639    0.0000 C   0  0  0  0  0  0  0  0  0  0  0  0
    2.9625   -7.4676    0.0000 S   0  0  0  0  0  0  0  0  0  0  0  0
    2.3524   -8.8379    0.0000 C   0  0  0  0  0  0  0  0  0  0  0  0
    0.8606   -8.6811    0.0000 C   0  0  0  0  0  0  0  0  0  0  0  0
    0.8606  -10.1811    0.0000 C   0  0  0  0  0  0  0  0  0  0  0  0
   -0.6311   -8.8379    0.0000 C   0  0  0  0  0  0  0  0  0  0  0  0
   -1.2412  -10.2082    0.0000 O   0  0  0  0  0  0  0  0  0  0  0  0
   -1.5128   -7.6244    0.0000 O   0  0  0  0  0  0  0  0  0  0  0  0
    0.5488   -7.2139    0.0000 N   0  0  0  0  0  0  0  0  0  0  0  0
   -0.8215   -6.6038    0.0000 C   0  0  0  0  0  0  0  0  0  0  0  0
  2  1  1  1
  2  3  1  0
  3  4  1  0
  4  5  1  0
  5  6  2  0
  6  7  1  0
  7  8  2  0
  8  9  1  0
  9 10  2  0
 10 11  1  0
  4 12  2  0
 13 12  1  6
 13 14  1  0
 14 15  1  1
 15 16  1  0
 16 17  1  0
 17 18  1  1
 17 19  1  0
 19 20  2  0
 19 21  1  0
 17 22  1  0
 22 23  1  0
 13  2  1  0
 22 14  1  0
 10  5  1  0
M  END
>  <assay_chembl_id>  (266) 
CHEMBL1663916

>  <assay_description>  (266) 
Binding affinity to human 5HT2B receptor by radioligand displacement assay

>  <parent_molecule_chembl_id>  (266) 
CHEMBL1651094

>  <canonical_smiles>  (266) 
C[C@@H]1SC(c2ccccc2O)=N[C@H]1[C@H]1SC[C@](C)(C(=O)O)N1C

>  <standard_type>  (266) 
Ki

>  <standard_relation>  (266) 
=

>  <standard_value>  (266) 
4695.0

>  <standard_units>  (266) 
nM

>  <target_pref_name>  (266) 
Serotonin 2b (5-HT2b) receptor

>  <target_chembl_id>  (266) 
CHEMBL1833

>  <target_organism>  (266) 
Homo sapiens

>  <pchembl_median>  (266) 
7.66

$$$$
CHEMBL1651095
     RDKit          2D

 15 16  0  0  0  0  0  0  0  0999 V2000
    4.6740   -4.8322    0.0000 C   0  0  0  0  0  0  0  0  0  0  0  0
    3.3037   -4.2221    0.0000 C   0  0  0  0  0  0  0  0  0  0  0  0
    2.9918   -2.7549    0.0000 S   0  0  0  0  0  0  0  0  0  0  0  0
    1.5000   -2.5981    0.0000 C   0  0  0  0  0  0  0  0  0  0  0  0
    0.7500   -1.2990    0.0000 C   0  0  0  0  0  0  0  0  0  0  0  0
    1.5000    0.0000    0.0000 C   0  0  0  0  0  0  0  0  0  0  0  0
    0.7500    1.2990    0.0000 C   0  0  0  0  0  0  0  0  0  0  0  0
   -0.7500    1.2990    0.0000 C   0  0  0  0  0  0  0  0  0  0  0  0
   -1.5000    0.0000    0.0000 C   0  0  0  0  0  0  0  0  0  0  0  0
   -0.7500   -1.2990    0.0000 C   0  0  0  0  0  0  0  0  0  0  0  0
   -1.5000   -2.5981    0.0000 O   0  0  0  0  0  0  0  0  0  0  0  0
    0.8899   -3.9684    0.0000 N   0  0  0  0  0  0  0  0  0  0  0  0
    2.0046   -4.9721    0.0000 C   0  0  0  0  0  0  0  0  0  0  0  0
    1.8478   -6.4639    0.0000 C   0  0  0  0  0  0  0  0  0  0  0  0
    0.4775   -7.0740    0.0000 O   0  0  0  0  0  0  0  0  0  0  0  0
  2  1  1  1
  2  3  1  0
  3  4  1  0
  4  5  1  0
  5  6  2  0
  6  7  1  0
  7  8  2  0
  8  9  1  0
  9 10  2  0
 10 11  1  0
  4 12  2  0
 12 13  1  0
 13 14  1  1
 14 15  1  0
 13  2  1  0
 10  5  1  0
M  END
>  <assay_chembl_id>  (267) 
CHEMBL1663916

>  <assay_description>  (267) 
Binding affinity to human 5HT2B receptor by radioligand displacement assay

>  <parent_molecule_chembl_id>  (267) 
CHEMBL1651095

>  <canonical_smiles>  (267) 
C[C@@H]1SC(c2ccccc2O)=N[C@@H]1CO

>  <standard_type>  (267) 
Ki

>  <standard_relation>  (267) 
=

>  <standard_value>  (267) 
505.0

>  <standard_units>  (267) 
nM

>  <target_pref_name>  (267) 
Serotonin 2b (5-HT2b) receptor

>  <target_chembl_id>  (267) 
CHEMBL1833

>  <target_organism>  (267) 
Homo sapiens

>  <pchembl_median>  (267) 
5.6

$$$$
CHEMBL1651096
     RDKit          2D

 15 16  0  0  0  0  0  0  0  0999 V2000
    4.6740   -4.8322    0.0000 C   0  0  0  0  0  0  0  0  0  0  0  0
    3.3037   -4.2221    0.0000 C   0  0  0  0  0  0  0  0  0  0  0  0
    2.9918   -2.7549    0.0000 S   0  0  0  0  0  0  0  0  0  0  0  0
    1.5000   -2.5981    0.0000 C   0  0  0  0  0  0  0  0  0  0  0  0
    0.7500   -1.2990    0.0000 C   0  0  0  0  0  0  0  0  0  0  0  0
    1.5000    0.0000    0.0000 C   0  0  0  0  0  0  0  0  0  0  0  0
    0.7500    1.2990    0.0000 C   0  0  0  0  0  0  0  0  0  0  0  0
   -0.7500    1.2990    0.0000 C   0  0  0  0  0  0  0  0  0  0  0  0
   -1.5000    0.0000    0.0000 C   0  0  0  0  0  0  0  0  0  0  0  0
   -0.7500   -1.2990    0.0000 C   0  0  0  0  0  0  0  0  0  0  0  0
   -1.5000   -2.5981    0.0000 O   0  0  0  0  0  0  0  0  0  0  0  0
    0.8899   -3.9684    0.0000 N   0  0  0  0  0  0  0  0  0  0  0  0
    2.0046   -4.9721    0.0000 C   0  0  0  0  0  0  0  0  0  0  0  0
    1.8478   -6.4639    0.0000 C   0  0  0  0  0  0  0  0  0  0  0  0
    0.4775   -7.0740    0.0000 O   0  0  0  0  0  0  0  0  0  0  0  0
  1  2  1  0
  2  3  1  0
  3  4  1  0
  4  5  1  0
  5  6  2  0
  6  7  1  0
  7  8  2  0
  8  9  1  0
  9 10  2  0
 10 11  1  0
  4 12  2  0
 12 13  1  0
 13 14  1  0
 14 15  2  0
 13  2  2  0
 10  5  1  0
M  END
>  <assay_chembl_id>  (268) 
CHEMBL1663916

>  <assay_description>  (268) 
Binding affinity to human 5HT2B receptor by radioligand displacement assay

>  <parent_molecule_chembl_id>  (268) 
CHEMBL1651096

>  <canonical_smiles>  (268) 
Cc1sc(-c2ccccc2O)nc1C=O

>  <standard_type>  (268) 
Ki

>  <standard_relation>  (268) 
=

>  <standard_value>  (268) 
1541.0

>  <standard_units>  (268) 
nM

>  <target_pref_name>  (268) 
Serotonin 2b (5-HT2b) receptor

>  <target_chembl_id>  (268) 
CHEMBL1833

>  <target_organism>  (268) 
Homo sapiens

>  <pchembl_median>  (268) 
7.85

$$$$
CHEMBL2205361
     RDKit          2D

 28 31  0  0  0  0  0  0  0  0999 V2000
   -2.6401   -3.1891    0.0000 C   0  0  0  0  0  0  0  0  0  0  0  0
   -1.2135   -2.7256    0.0000 C   0  0  0  0  0  0  0  0  0  0  0  0
   -0.0000   -3.6073    0.0000 C   0  0  0  0  0  0  0  0  0  0  0  0
   -0.0000   -5.1073    0.0000 C   0  0  0  0  0  0  0  0  0  0  0  0
   -1.2990   -5.8573    0.0000 O   0  0  0  0  0  0  0  0  0  0  0  0
    1.2990   -5.8573    0.0000 N   0  0  0  0  0  0  0  0  0  0  0  0
    1.2990   -7.3573    0.0000 C   0  0  0  0  0  0  0  0  0  0  0  0
    2.5981   -8.1073    0.0000 C   0  0  0  0  0  0  0  0  0  0  0  0
    2.5981   -9.6073    0.0000 C   0  0  0  0  0  0  0  0  0  0  0  0
    3.8971  -10.3573    0.0000 N   0  0  0  0  0  0  0  0  0  0  0  0
    3.8971  -11.8573    0.0000 C   0  0  0  0  0  0  0  0  0  0  0  0
    5.1962  -12.6073    0.0000 C   0  0  0  0  0  0  0  0  0  0  0  0
    6.4952  -11.8573    0.0000 C   0  0  0  0  0  0  0  0  0  0  0  0
    6.4952  -10.3573    0.0000 C   0  0  0  0  0  0  0  0  0  0  0  0
    5.1962   -9.6073    0.0000 C   0  0  0  0  0  0  0  0  0  0  0  0
    2.5981   -5.1073    0.0000 C   0  0  0  0  0  0  0  0  0  0  0  0
    3.8971   -5.8573    0.0000 C   0  0  0  0  0  0  0  0  0  0  0  0
    5.1962   -5.1073    0.0000 C   0  0  0  0  0  0  0  0  0  0  0  0
    5.1962   -3.6073    0.0000 C   0  0  0  0  0  0  0  0  0  0  0  0
    3.8971   -2.8573    0.0000 C   0  0  0  0  0  0  0  0  0  0  0  0
    2.5981   -3.6073    0.0000 C   0  0  0  0  0  0  0  0  0  0  0  0
    1.2135   -2.7256    0.0000 O   0  0  0  0  0  0  0  0  0  0  0  0
    0.7500   -1.2990    0.0000 C   0  0  0  0  0  0  0  0  0  0  0  0
    1.5000    0.0000    0.0000 C   0  0  0  0  0  0  0  0  0  0  0  0
    0.7500    1.2990    0.0000 C   0  0  0  0  0  0  0  0  0  0  0  0
   -0.7500    1.2990    0.0000 C   0  0  0  0  0  0  0  0  0  0  0  0
   -1.5000    0.0000    0.0000 C   0  0  0  0  0  0  0  0  0  0  0  0
   -0.7500   -1.2990    0.0000 C   0  0  0  0  0  0  0  0  0  0  0  0
  1  2  1  0
  2  3  2  0
  3  4  1  0
  4  5  2  0
  4  6  1  0
  6  7  1  0
  7  8  1  0
  8  9  1  0
  9 10  1  0
 10 11  1  0
 11 12  1  0
 12 13  1  0
 13 14  1  0
 14 15  1  0
  6 16  1  0
 16 17  2  0
 17 18  1  0
 18 19  2  0
 19 20  1  0
 20 21  2  0
  3 22  1  0
 22 23  1  0
 23 24  2  0
 24 25  1  0
 25 26  2  0
 26 27  1  0
 27 28  2  0
 28  2  1  0
 15 10  1  0
 21 16  1  0
 28 23  1  0
M  END
>  <assay_chembl_id>  (269) 
CHEMBL2209489

>  <assay_description>  (269) 
Displacement of [3H]LSD from human recombinant 5-HT2B receptor after 1.5 hrs by scintillation counting analysis

>  <parent_molecule_chembl_id>  (269) 
CHEMBL2205361

>  <canonical_smiles>  (269) 
Cc1c(C(=O)N(CCCN2CCCCC2)c2ccccc2)oc2ccccc12

>  <standard_type>  (269) 
Ki

>  <standard_relation>  (269) 
=

>  <standard_value>  (269) 
936.0

>  <standard_units>  (269) 
nM

>  <target_pref_name>  (269) 
Serotonin 2b (5-HT2b) receptor

>  <target_chembl_id>  (269) 
CHEMBL1833

>  <target_organism>  (269) 
Homo sapiens

>  <pchembl_median>  (269) 
7.06

$$$$
CHEMBL2205360
     RDKit          2D

 30 33  0  0  0  0  0  0  0  0999 V2000
    3.7500   -1.2990    0.0000 C   0  0  0  0  0  0  0  0  0  0  0  0
    3.0000    0.0000    0.0000 O   0  0  0  0  0  0  0  0  0  0  0  0
    1.5000    0.0000    0.0000 C   0  0  0  0  0  0  0  0  0  0  0  0
    0.7500   -1.2990    0.0000 C   0  0  0  0  0  0  0  0  0  0  0  0
   -0.7500   -1.2990    0.0000 C   0  0  0  0  0  0  0  0  0  0  0  0
   -1.5000    0.0000    0.0000 C   0  0  0  0  0  0  0  0  0  0  0  0
   -2.9672    0.3119    0.0000 C   0  0  0  0  0  0  0  0  0  0  0  0
   -4.0819   -0.6918    0.0000 C   0  0  0  0  0  0  0  0  0  0  0  0
   -3.1240    1.8037    0.0000 C   0  0  0  0  0  0  0  0  0  0  0  0
   -4.4231    2.5537    0.0000 C   0  0  0  0  0  0  0  0  0  0  0  0
   -5.7221    1.8037    0.0000 O   0  0  0  0  0  0  0  0  0  0  0  0
   -4.4231    4.0537    0.0000 N   0  0  0  0  0  0  0  0  0  0  0  0
   -5.7221    4.8037    0.0000 C   0  0  0  0  0  0  0  0  0  0  0  0
   -5.7221    6.3037    0.0000 C   0  0  0  0  0  0  0  0  0  0  0  0
   -7.0211    7.0537    0.0000 C   0  0  0  0  0  0  0  0  0  0  0  0
   -7.0211    8.5537    0.0000 N   0  0  0  0  0  0  0  0  0  0  0  0
   -5.7221    9.3037    0.0000 C   0  0  0  0  0  0  0  0  0  0  0  0
   -5.7221   10.8037    0.0000 C   0  0  0  0  0  0  0  0  0  0  0  0
   -7.0211   11.5537    0.0000 C   0  0  0  0  0  0  0  0  0  0  0  0
   -8.3202   10.8037    0.0000 C   0  0  0  0  0  0  0  0  0  0  0  0
   -8.3202    9.3037    0.0000 C   0  0  0  0  0  0  0  0  0  0  0  0
   -3.1240    4.8037    0.0000 C   0  0  0  0  0  0  0  0  0  0  0  0
   -1.8250    4.0537    0.0000 C   0  0  0  0  0  0  0  0  0  0  0  0
   -0.5259    4.8037    0.0000 C   0  0  0  0  0  0  0  0  0  0  0  0
   -0.5259    6.3037    0.0000 C   0  0  0  0  0  0  0  0  0  0  0  0
   -1.8250    7.0537    0.0000 C   0  0  0  0  0  0  0  0  0  0  0  0
   -3.1240    6.3037    0.0000 C   0  0  0  0  0  0  0  0  0  0  0  0
   -1.7537    2.4138    0.0000 O   0  0  0  0  0  0  0  0  0  0  0  0
   -0.7500    1.2990    0.0000 C   0  0  0  0  0  0  0  0  0  0  0  0
    0.7500    1.2990    0.0000 C   0  0  0  0  0  0  0  0  0  0  0  0
  1  2  1  0
  2  3  1  0
  3  4  2  0
  4  5  1  0
  5  6  2  0
  6  7  1  0
  7  8  1  0
  7  9  2  0
  9 10  1  0
 10 11  2  0
 10 12  1  0
 12 13  1  0
 13 14  1  0
 14 15  1  0
 15 16  1  0
 16 17  1  0
 17 18  1  0
 18 19  1  0
 19 20  1  0
 20 21  1  0
 12 22  1  0
 22 23  2  0
 23 24  1  0
 24 25  2  0
 25 26  1  0
 26 27  2  0
  9 28  1  0
 28 29  1  0
 29 30  2  0
 30  3  1  0
 29  6  1  0
 21 16  1  0
 27 22  1  0
M  END
>  <assay_chembl_id>  (270) 
CHEMBL2209489

>  <assay_description>  (270) 
Displacement of [3H]LSD from human recombinant 5-HT2B receptor after 1.5 hrs by scintillation counting analysis

>  <parent_molecule_chembl_id>  (270) 
CHEMBL2205360

>  <canonical_smiles>  (270) 
COc1ccc2c(C)c(C(=O)N(CCCN3CCCCC3)c3ccccc3)oc2c1

>  <standard_type>  (270) 
Ki

>  <standard_relation>  (270) 
=

>  <standard_value>  (270) 
204.0

>  <standard_units>  (270) 
nM

>  <target_pref_name>  (270) 
Serotonin 2b (5-HT2b) receptor

>  <target_chembl_id>  (270) 
CHEMBL1833

>  <target_organism>  (270) 
Homo sapiens

>  <pchembl_median>  (270) 
7.245

$$$$
CHEMBL2203551
     RDKit          2D

 20 22  0  0  0  0  0  0  0  0999 V2000
    1.5000    0.0000    0.0000 C   0  0  0  0  0  0  0  0  0  0  0  0
    0.7500   -1.2990    0.0000 C   0  0  0  0  0  0  0  0  0  0  0  0
   -0.7500   -1.2990    0.0000 C   0  0  0  0  0  0  0  0  0  0  0  0
   -1.5000    0.0000    0.0000 C   0  0  0  0  0  0  0  0  0  0  0  0
   -3.0000    0.0000    0.0000 O   0  0  0  0  0  0  0  0  0  0  0  0
   -3.7500    1.2990    0.0000 C   0  0  0  0  0  0  0  0  0  0  0  0
   -5.2500    1.2990    0.0000 C   0  0  0  0  0  0  0  0  0  0  0  0
   -6.1317    0.0855    0.0000 C   0  0  0  0  0  0  0  0  0  0  0  0
   -7.5583    0.5490    0.0000 C   0  0  0  0  0  0  0  0  0  0  0  0
   -8.7718   -0.3326    0.0000 O   0  0  0  0  0  0  0  0  0  0  0  0
  -10.1421    0.2775    0.0000 C   0  0  0  0  0  0  0  0  0  0  0  0
  -11.3556   -0.6042    0.0000 C   0  0  0  0  0  0  0  0  0  0  0  0
  -11.3556   -2.1042    0.0000 C   0  0  0  0  0  0  0  0  0  0  0  0
  -12.7822   -2.5677    0.0000 C   0  0  0  0  0  0  0  0  0  0  0  0
  -13.6639   -1.3542    0.0000 C   0  0  0  0  0  0  0  0  0  0  0  0
  -12.7822   -0.1407    0.0000 N   0  0  0  0  0  0  0  0  0  0  0  0
   -7.5583    2.0490    0.0000 N   0  0  0  0  0  0  0  0  0  0  0  0
   -6.1317    2.5126    0.0000 O   0  0  0  0  0  0  0  0  0  0  0  0
   -0.7500    1.2990    0.0000 C   0  0  0  0  0  0  0  0  0  0  0  0
    0.7500    1.2990    0.0000 C   0  0  0  0  0  0  0  0  0  0  0  0
  1  2  2  0
  2  3  1  0
  3  4  2  0
  4  5  1  0
  5  6  1  0
  6  7  1  0
  7  8  2  0
  8  9  1  0
  9 10  1  0
 10 11  1  0
 12 11  1  6
 12 13  1  0
 13 14  1  0
 14 15  1  0
 15 16  1  0
  9 17  2  0
 17 18  1  0
  4 19  1  0
 19 20  2  0
 20  1  1  0
 18  7  1  0
 16 12  1  0
M  END
>  <assay_chembl_id>  (271) 
CHEMBL2210102

>  <assay_description>  (271) 
Displacement of [3H]LSD from human recombinant 5-HT2B receptor after 1.5 hrs by microbeta scintillation counting analysis

>  <parent_molecule_chembl_id>  (271) 
CHEMBL2203551

>  <canonical_smiles>  (271) 
c1ccc(OCc2cc(OC[C@@H]3CCCN3)no2)cc1

>  <standard_type>  (271) 
Ki

>  <standard_relation>  (271) 
=

>  <standard_value>  (271) 
5097.0

>  <standard_units>  (271) 
nM

>  <target_pref_name>  (271) 
Serotonin 2b (5-HT2b) receptor

>  <target_chembl_id>  (271) 
CHEMBL1833

>  <target_organism>  (271) 
Homo sapiens

>  <pchembl_median>  (271) 
6.98

$$$$
CHEMBL2323581
     RDKit          2D

 23 26  0  0  0  0  0  0  0  0999 V2000
    7.5000   -5.1962    0.0000 C   0  0  0  0  0  0  0  0  0  0  0  0
    6.0000   -5.1962    0.0000 O   0  0  0  0  0  0  0  0  0  0  0  0
    5.2500   -3.8971    0.0000 C   0  0  0  0  0  0  0  0  0  0  0  0
    6.0000   -2.5981    0.0000 O   0  0  0  0  0  0  0  0  0  0  0  0
    7.5000   -2.5981    0.0000 C   0  0  0  0  0  0  0  0  0  0  0  0
    3.7500   -3.8971    0.0000 C   0  0  0  0  0  0  0  0  0  0  0  0
    3.0000   -2.5981    0.0000 C   0  0  0  0  0  0  0  0  0  0  0  0
    1.5000   -2.5981    0.0000 C   0  0  0  0  0  0  0  0  0  0  0  0
    0.7500   -1.2990    0.0000 C   0  0  0  0  0  0  0  0  0  0  0  0
    1.5000    0.0000    0.0000 C   0  0  0  0  0  0  0  0  0  0  0  0
    0.7500    1.2990    0.0000 C   0  0  0  0  0  0  0  0  0  0  0  0
   -0.7500    1.2990    0.0000 C   0  0  0  0  0  0  0  0  0  0  0  0
   -1.5000    0.0000    0.0000 C   0  0  0  0  0  0  0  0  0  0  0  0
   -0.7500   -1.2990    0.0000 C   0  0  0  0  0  0  0  0  0  0  0  0
   -1.5000   -2.5981    0.0000 C   0  0  0  0  0  0  0  0  0  0  0  0
   -2.9266   -2.1346    0.0000 C   0  0  0  0  0  0  0  0  0  0  0  0
   -2.9266   -0.6346    0.0000 N   0  0  0  0  0  0  0  0  0  0  0  0
   -4.1401    0.2471    0.0000 C   0  0  0  0  0  0  0  0  0  0  0  0
   -0.7500   -3.8971    0.0000 C   0  0  0  0  0  0  0  0  0  0  0  0
    0.7500   -3.8971    0.0000 C   0  0  0  0  0  0  0  0  0  0  0  0
    1.5000   -5.1962    0.0000 N   0  0  0  0  0  0  0  0  0  0  0  0
    0.7500   -6.4952    0.0000 C   0  0  0  0  0  0  0  0  0  0  0  0
    3.0000   -5.1962    0.0000 C   0  0  0  0  0  0  0  0  0  0  0  0
  1  2  1  0
  2  3  1  0
  3  4  1  0
  4  5  1  0
  6  3  1  1
  6  7  1  0
  8  7  1  1
  8  9  1  0
  9 10  2  0
 10 11  1  0
 11 12  2  0
 12 13  1  0
 13 14  2  0
 14 15  1  0
 15 16  2  0
 16 17  1  0
 17 18  1  0
 15 19  1  0
 20 19  1  6
 20 21  1  0
 21 22  1  0
 21 23  1  0
 23  6  1  0
 20  8  1  0
 14  9  1  0
 17 13  1  0
M  END
>  <assay_chembl_id>  (272) 
CHEMBL2328669

>  <assay_description>  (272) 
Displacement of [125I](+/-)DOI from human 5-HT2B receptor transfected in CHO cell membrane after 60 mins by scintillation counting analysis

>  <parent_molecule_chembl_id>  (272) 
CHEMBL2323581

>  <canonical_smiles>  (272) 
COC(OC)[C@@H]1C[C@@H]2c3cccc4c3c(cn4C)C[C@H]2N(C)C1

>  <standard_type>  (272) 
Ki

>  <standard_relation>  (272) 
=

>  <standard_value>  (272) 
0.54

>  <standard_units>  (272) 
nM

>  <target_pref_name>  (272) 
Serotonin 2b (5-HT2b) receptor

>  <target_chembl_id>  (272) 
CHEMBL1833

>  <target_organism>  (272) 
Homo sapiens

>  <pchembl_median>  (272) 
8.11

$$$$
CHEMBL2323580
     RDKit          2D

 27 30  0  0  0  0  0  0  0  0999 V2000
   12.0000   -7.7942    0.0000 C   0  0  0  0  0  0  0  0  0  0  0  0
   10.5000   -7.7942    0.0000 N   0  0  0  0  0  0  0  0  0  0  0  0
    9.7500   -9.0933    0.0000 C   0  0  0  0  0  0  0  0  0  0  0  0
    9.7500   -6.4952    0.0000 C   0  0  0  0  0  0  0  0  0  0  0  0
    8.2500   -6.4952    0.0000 C   0  0  0  0  0  0  0  0  0  0  0  0
    7.5000   -5.1962    0.0000 C   0  0  0  0  0  0  0  0  0  0  0  0
    6.0000   -5.1962    0.0000 N   0  0  0  0  0  0  0  0  0  0  0  0
    5.2500   -3.8971    0.0000 C   0  0  0  0  0  0  0  0  0  0  0  0
    6.0000   -2.5981    0.0000 O   0  0  0  0  0  0  0  0  0  0  0  0
    3.7500   -3.8971    0.0000 C   0  0  0  0  0  0  0  0  0  0  0  0
    3.0000   -2.5981    0.0000 C   0  0  0  0  0  0  0  0  0  0  0  0
    1.5000   -2.5981    0.0000 C   0  0  0  0  0  0  0  0  0  0  0  0
    0.7500   -1.2990    0.0000 C   0  0  0  0  0  0  0  0  0  0  0  0
    1.5000    0.0000    0.0000 C   0  0  0  0  0  0  0  0  0  0  0  0
    0.7500    1.2990    0.0000 C   0  0  0  0  0  0  0  0  0  0  0  0
   -0.7500    1.2990    0.0000 C   0  0  0  0  0  0  0  0  0  0  0  0
   -1.5000    0.0000    0.0000 C   0  0  0  0  0  0  0  0  0  0  0  0
   -0.7500   -1.2990    0.0000 C   0  0  0  0  0  0  0  0  0  0  0  0
   -1.5000   -2.5981    0.0000 C   0  0  0  0  0  0  0  0  0  0  0  0
   -2.9266   -2.1346    0.0000 C   0  0  0  0  0  0  0  0  0  0  0  0
   -2.9266   -0.6346    0.0000 N   0  0  0  0  0  0  0  0  0  0  0  0
   -4.1401    0.2471    0.0000 C   0  0  0  0  0  0  0  0  0  0  0  0
   -0.7500   -3.8971    0.0000 C   0  0  0  0  0  0  0  0  0  0  0  0
    0.7500   -3.8971    0.0000 C   0  0  0  0  0  0  0  0  0  0  0  0
    1.5000   -5.1962    0.0000 N   0  0  0  0  0  0  0  0  0  0  0  0
    0.7500   -6.4952    0.0000 C   0  0  0  0  0  0  0  0  0  0  0  0
    3.0000   -5.1962    0.0000 C   0  0  0  0  0  0  0  0  0  0  0  0
  1  2  1  0
  2  3  1  0
  2  4  1  0
  4  5  1  0
  5  6  1  0
  6  7  1  0
  7  8  1  0
  8  9  2  0
 10  8  1  1
 10 11  1  0
 12 11  1  1
 12 13  1  0
 13 14  2  0
 14 15  1  0
 15 16  2  0
 16 17  1  0
 17 18  2  0
 18 19  1  0
 19 20  2  0
 20 21  1  0
 21 22  1  0
 19 23  1  0
 24 23  1  6
 24 25  1  0
 25 26  1  0
 25 27  1  0
 27 10  1  0
 24 12  1  0
 18 13  1  0
 21 17  1  0
M  END
>  <assay_chembl_id>  (273) 
CHEMBL2328669

>  <assay_description>  (273) 
Displacement of [125I](+/-)DOI from human 5-HT2B receptor transfected in CHO cell membrane after 60 mins by scintillation counting analysis

>  <parent_molecule_chembl_id>  (273) 
CHEMBL2323580

>  <canonical_smiles>  (273) 
CN(C)CCCNC(=O)[C@@H]1C[C@@H]2c3cccc4c3c(cn4C)C[C@H]2N(C)C1

>  <standard_type>  (273) 
Ki

>  <standard_relation>  (273) 
=

>  <standard_value>  (273) 
0.97

>  <standard_units>  (273) 
nM

>  <target_pref_name>  (273) 
Serotonin 2b (5-HT2b) receptor

>  <target_chembl_id>  (273) 
CHEMBL1833

>  <target_organism>  (273) 
Homo sapiens

>  <pchembl_median>  (273) 
6.6

$$$$
CHEMBL2323579
     RDKit          2D

 32 35  0  0  0  0  0  0  0  0999 V2000
    6.0000  -10.3923    0.0000 C   0  0  0  0  0  0  0  0  0  0  0  0
    5.2500   -9.0933    0.0000 C   0  0  0  0  0  0  0  0  0  0  0  0
    6.0000   -7.7942    0.0000 N   0  0  0  0  0  0  0  0  0  0  0  0
    5.2500   -6.4952    0.0000 C   0  0  0  0  0  0  0  0  0  0  0  0
    3.7500   -6.4952    0.0000 O   0  0  0  0  0  0  0  0  0  0  0  0
    6.0000   -5.1962    0.0000 N   0  0  0  0  0  0  0  0  0  0  0  0
    7.5000   -5.1962    0.0000 C   0  0  0  0  0  0  0  0  0  0  0  0
    8.2500   -6.4952    0.0000 C   0  0  0  0  0  0  0  0  0  0  0  0
    9.7500   -6.4952    0.0000 C   0  0  0  0  0  0  0  0  0  0  0  0
   10.5000   -7.7942    0.0000 N   0  0  0  0  0  0  0  0  0  0  0  0
   12.0000   -7.7942    0.0000 C   0  0  0  0  0  0  0  0  0  0  0  0
    9.7500   -9.0933    0.0000 C   0  0  0  0  0  0  0  0  0  0  0  0
    5.2500   -3.8971    0.0000 C   0  0  0  0  0  0  0  0  0  0  0  0
    6.0000   -2.5981    0.0000 O   0  0  0  0  0  0  0  0  0  0  0  0
    3.7500   -3.8971    0.0000 C   0  0  0  0  0  0  0  0  0  0  0  0
    3.0000   -2.5981    0.0000 C   0  0  0  0  0  0  0  0  0  0  0  0
    1.5000   -2.5981    0.0000 C   0  0  0  0  0  0  0  0  0  0  0  0
    0.7500   -1.2990    0.0000 C   0  0  0  0  0  0  0  0  0  0  0  0
    1.5000    0.0000    0.0000 C   0  0  0  0  0  0  0  0  0  0  0  0
    0.7500    1.2990    0.0000 C   0  0  0  0  0  0  0  0  0  0  0  0
   -0.7500    1.2990    0.0000 C   0  0  0  0  0  0  0  0  0  0  0  0
   -1.5000    0.0000    0.0000 C   0  0  0  0  0  0  0  0  0  0  0  0
   -0.7500   -1.2990    0.0000 C   0  0  0  0  0  0  0  0  0  0  0  0
   -1.5000   -2.5981    0.0000 C   0  0  0  0  0  0  0  0  0  0  0  0
   -2.9266   -2.1346    0.0000 C   0  0  0  0  0  0  0  0  0  0  0  0
   -2.9266   -0.6346    0.0000 N   0  0  0  0  0  0  0  0  0  0  0  0
   -4.1401    0.2471    0.0000 C   0  0  0  0  0  0  0  0  0  0  0  0
   -0.7500   -3.8971    0.0000 C   0  0  0  0  0  0  0  0  0  0  0  0
    0.7500   -3.8971    0.0000 C   0  0  0  0  0  0  0  0  0  0  0  0
    1.5000   -5.1962    0.0000 N   0  0  0  0  0  0  0  0  0  0  0  0
    0.7500   -6.4952    0.0000 C   0  0  0  0  0  0  0  0  0  0  0  0
    3.0000   -5.1962    0.0000 C   0  0  0  0  0  0  0  0  0  0  0  0
  1  2  1  0
  2  3  1  0
  3  4  1  0
  4  5  2  0
  4  6  1  0
  6  7  1  0
  7  8  1  0
  8  9  1  0
  9 10  1  0
 10 11  1  0
 10 12  1  0
  6 13  1  0
 13 14  2  0
 15 13  1  1
 15 16  1  0
 17 16  1  1
 17 18  1  0
 18 19  2  0
 19 20  1  0
 20 21  2  0
 21 22  1  0
 22 23  2  0
 23 24  1  0
 24 25  2  0
 25 26  1  0
 26 27  1  0
 24 28  1  0
 29 28  1  6
 29 30  1  0
 30 31  1  0
 30 32  1  0
 32 15  1  0
 29 17  1  0
 23 18  1  0
 26 22  1  0
M  END
>  <assay_chembl_id>  (274) 
CHEMBL2328669

>  <assay_description>  (274) 
Displacement of [125I](+/-)DOI from human 5-HT2B receptor transfected in CHO cell membrane after 60 mins by scintillation counting analysis

>  <parent_molecule_chembl_id>  (274) 
CHEMBL2323579

>  <canonical_smiles>  (274) 
CCNC(=O)N(CCCN(C)C)C(=O)[C@@H]1C[C@@H]2c3cccc4c3c(cn4C)C[C@H]2N(C)C1

>  <standard_type>  (274) 
Ki

>  <standard_relation>  (274) 
=

>  <standard_value>  (274) 
1.0

>  <standard_units>  (274) 
nM

>  <target_pref_name>  (274) 
Serotonin 2b (5-HT2b) receptor

>  <target_chembl_id>  (274) 
CHEMBL1833

>  <target_organism>  (274) 
Homo sapiens

>  <pchembl_median>  (274) 
6.0

$$$$
CHEMBL14022
     RDKit          2D

 31 34  0  0  0  0  0  0  0  0999 V2000
    6.0000  -10.3923    0.0000 C   0  0  0  0  0  0  0  0  0  0  0  0
    5.2500   -9.0933    0.0000 C   0  0  0  0  0  0  0  0  0  0  0  0
    6.0000   -7.7942    0.0000 N   0  0  0  0  0  0  0  0  0  0  0  0
    5.2500   -6.4952    0.0000 C   0  0  0  0  0  0  0  0  0  0  0  0
    3.7500   -6.4952    0.0000 O   0  0  0  0  0  0  0  0  0  0  0  0
    6.0000   -5.1962    0.0000 N   0  0  0  0  0  0  0  0  0  0  0  0
    7.5000   -5.1962    0.0000 C   0  0  0  0  0  0  0  0  0  0  0  0
    8.2500   -6.4952    0.0000 C   0  0  0  0  0  0  0  0  0  0  0  0
    9.7500   -6.4952    0.0000 C   0  0  0  0  0  0  0  0  0  0  0  0
   10.5000   -7.7942    0.0000 N   0  0  0  0  0  0  0  0  0  0  0  0
   12.0000   -7.7942    0.0000 C   0  0  0  0  0  0  0  0  0  0  0  0
    9.7500   -9.0933    0.0000 C   0  0  0  0  0  0  0  0  0  0  0  0
    5.2500   -3.8971    0.0000 C   0  0  0  0  0  0  0  0  0  0  0  0
    6.0000   -2.5981    0.0000 O   0  0  0  0  0  0  0  0  0  0  0  0
    3.7500   -3.8971    0.0000 C   0  0  0  0  0  0  0  0  0  0  0  0
    3.0000   -2.5981    0.0000 C   0  0  0  0  0  0  0  0  0  0  0  0
    1.5000   -2.5981    0.0000 C   0  0  0  0  0  0  0  0  0  0  0  0
    0.7500   -1.2990    0.0000 C   0  0  0  0  0  0  0  0  0  0  0  0
    1.5000    0.0000    0.0000 C   0  0  0  0  0  0  0  0  0  0  0  0
    0.7500    1.2990    0.0000 C   0  0  0  0  0  0  0  0  0  0  0  0
   -0.7500    1.2990    0.0000 C   0  0  0  0  0  0  0  0  0  0  0  0
   -1.5000    0.0000    0.0000 C   0  0  0  0  0  0  0  0  0  0  0  0
   -2.9266   -0.4635    0.0000 N   0  0  0  0  0  0  0  0  0  0  0  0
   -2.9266   -1.9635    0.0000 C   0  0  0  0  0  0  0  0  0  0  0  0
   -1.5000   -2.5981    0.0000 C   0  0  0  0  0  0  0  0  0  0  0  0
   -0.7500   -1.2990    0.0000 C   0  0  0  0  0  0  0  0  0  0  0  0
   -0.7500   -3.8971    0.0000 C   0  0  0  0  0  0  0  0  0  0  0  0
    0.7500   -3.8971    0.0000 C   0  0  0  0  0  0  0  0  0  0  0  0
    1.5000   -5.1962    0.0000 N   0  0  0  0  0  0  0  0  0  0  0  0
    0.7500   -6.4952    0.0000 C   0  0  0  0  0  0  0  0  0  0  0  0
    3.0000   -5.1962    0.0000 C   0  0  0  0  0  0  0  0  0  0  0  0
  1  2  1  0
  2  3  1  0
  3  4  1  0
  4  5  2  0
  4  6  1  0
  6  7  1  0
  7  8  1  0
  8  9  1  0
  9 10  1  0
 10 11  1  0
 10 12  1  0
  6 13  1  0
 13 14  2  0
 15 13  1  1
 15 16  1  0
 17 16  1  1
 17 18  1  0
 18 19  2  0
 19 20  1  0
 20 21  2  0
 21 22  1  0
 22 23  1  0
 23 24  1  0
 24 25  2  0
 25 26  1  0
 25 27  1  0
 28 27  1  6
 28 29  1  0
 29 30  1  0
 29 31  1  0
 31 15  1  0
 28 17  1  0
 26 18  1  0
 26 22  2  0
M  END
>  <assay_chembl_id>  (275) 
CHEMBL2328669

>  <assay_description>  (275) 
Displacement of [125I](+/-)DOI from human 5-HT2B receptor transfected in CHO cell membrane after 60 mins by scintillation counting analysis

>  <parent_molecule_chembl_id>  (275) 
CHEMBL14022

>  <canonical_smiles>  (275) 
CCNC(=O)N(CCCN(C)C)C(=O)[C@@H]1C[C@@H]2c3cccc4[nH]cc(c34)C[C@H]2N(C)C1

>  <standard_type>  (275) 
Ki

>  <standard_relation>  (275) 
=

>  <standard_value>  (275) 
2.2

>  <standard_units>  (275) 
nM

>  <target_pref_name>  (275) 
Serotonin 2b (5-HT2b) receptor

>  <target_chembl_id>  (275) 
CHEMBL1833

>  <target_organism>  (275) 
Homo sapiens

>  <pchembl_median>  (275) 
7.06

$$$$
CHEMBL2323578
     RDKit          2D

 36 40  0  0  0  0  0  0  0  0999 V2000
    0.7500   -9.0933    0.0000 C   0  0  0  0  0  0  0  0  0  0  0  0
    1.5000   -7.7942    0.0000 C   0  0  0  0  0  0  0  0  0  0  0  0
    0.7500   -6.4952    0.0000 C   0  0  0  0  0  0  0  0  0  0  0  0
    1.5000   -5.1962    0.0000 N   0  0  0  0  0  0  0  0  0  0  0  0
    3.0000   -5.1962    0.0000 C   0  0  0  0  0  0  0  0  0  0  0  0
    3.7500   -3.8971    0.0000 C   0  0  0  0  0  0  0  0  0  0  0  0
    5.2500   -3.8971    0.0000 C   0  0  0  0  0  0  0  0  0  0  0  0
    6.0000   -2.5981    0.0000 O   0  0  0  0  0  0  0  0  0  0  0  0
    6.0000   -5.1962    0.0000 N   0  0  0  0  0  0  0  0  0  0  0  0
    7.5000   -5.1962    0.0000 C   0  0  0  0  0  0  0  0  0  0  0  0
    8.2500   -6.4952    0.0000 C   0  0  0  0  0  0  0  0  0  0  0  0
    9.7500   -6.4952    0.0000 C   0  0  0  0  0  0  0  0  0  0  0  0
   10.5000   -7.7942    0.0000 N   0  0  0  0  0  0  0  0  0  0  0  0
    9.7500   -9.0933    0.0000 C   0  0  0  0  0  0  0  0  0  0  0  0
   10.5000  -10.3923    0.0000 C   0  0  0  0  0  0  0  0  0  0  0  0
   12.0000  -10.3923    0.0000 O   0  0  0  0  0  0  0  0  0  0  0  0
   12.7500   -9.0933    0.0000 C   0  0  0  0  0  0  0  0  0  0  0  0
   12.0000   -7.7942    0.0000 C   0  0  0  0  0  0  0  0  0  0  0  0
    5.2500   -6.4952    0.0000 C   0  0  0  0  0  0  0  0  0  0  0  0
    3.7500   -6.4952    0.0000 O   0  0  0  0  0  0  0  0  0  0  0  0
    6.0000   -7.7942    0.0000 N   0  0  0  0  0  0  0  0  0  0  0  0
    5.2500   -9.0933    0.0000 C   0  0  0  0  0  0  0  0  0  0  0  0
    6.0000  -10.3923    0.0000 C   0  0  0  0  0  0  0  0  0  0  0  0
    3.0000   -2.5981    0.0000 C   0  0  0  0  0  0  0  0  0  0  0  0
    1.5000   -2.5981    0.0000 C   0  0  0  0  0  0  0  0  0  0  0  0
    0.7500   -1.2990    0.0000 C   0  0  0  0  0  0  0  0  0  0  0  0
    1.5000    0.0000    0.0000 C   0  0  0  0  0  0  0  0  0  0  0  0
    0.7500    1.2990    0.0000 C   0  0  0  0  0  0  0  0  0  0  0  0
   -0.7500    1.2990    0.0000 C   0  0  0  0  0  0  0  0  0  0  0  0
   -1.5000    0.0000    0.0000 C   0  0  0  0  0  0  0  0  0  0  0  0
   -2.9266   -0.4635    0.0000 N   0  0  0  0  0  0  0  0  0  0  0  0
   -2.9266   -1.9635    0.0000 C   0  0  0  0  0  0  0  0  0  0  0  0
   -1.5000   -2.5981    0.0000 C   0  0  0  0  0  0  0  0  0  0  0  0
   -0.7500   -1.2990    0.0000 C   0  0  0  0  0  0  0  0  0  0  0  0
   -0.7500   -3.8971    0.0000 C   0  0  0  0  0  0  0  0  0  0  0  0
    0.7500   -3.8971    0.0000 C   0  0  0  0  0  0  0  0  0  0  0  0
  1  2  2  0
  2  3  1  0
  3  4  1  0
  4  5  1  0
  5  6  1  0
  6  7  1  1
  7  8  2  0
  7  9  1  0
  9 10  1  0
 10 11  1  0
 11 12  1  0
 12 13  1  0
 13 14  1  0
 14 15  1  0
 15 16  1  0
 16 17  1  0
 17 18  1  0
  9 19  1  0
 19 20  2  0
 19 21  1  0
 21 22  1  0
 22 23  1  0
  6 24  1  0
 25 24  1  1
 25 26  1  0
 26 27  2  0
 27 28  1  0
 28 29  2  0
 29 30  1  0
 30 31  1  0
 31 32  1  0
 32 33  2  0
 33 34  1  0
 33 35  1  0
 36 35  1  6
 36  4  1  0
 18 13  1  0
 36 25  1  0
 34 26  1  0
 34 30  2  0
M  END
>  <assay_chembl_id>  (276) 
CHEMBL2328669

>  <assay_description>  (276) 
Displacement of [125I](+/-)DOI from human 5-HT2B receptor transfected in CHO cell membrane after 60 mins by scintillation counting analysis

>  <parent_molecule_chembl_id>  (276) 
CHEMBL2323578

>  <canonical_smiles>  (276) 
C=CCN1C[C@H](C(=O)N(CCCN2CCOCC2)C(=O)NCC)C[C@@H]2c3cccc4[nH]cc(c34)C[C@H]21

>  <standard_type>  (276) 
Ki

>  <standard_relation>  (276) 
=

>  <standard_value>  (276) 
7.1

>  <standard_units>  (276) 
nM

>  <target_pref_name>  (276) 
Serotonin 2b (5-HT2b) receptor

>  <target_chembl_id>  (276) 
CHEMBL1833

>  <target_organism>  (276) 
Homo sapiens

>  <pchembl_median>  (276) 
8.68

$$$$
CHEMBL1201087
     RDKit          2D

 33 36  0  0  0  0  0  0  0  0999 V2000
    0.7500   -9.0933    0.0000 C   0  0  0  0  0  0  0  0  0  0  0  0
    1.5000   -7.7942    0.0000 C   0  0  0  0  0  0  0  0  0  0  0  0
    0.7500   -6.4952    0.0000 C   0  0  0  0  0  0  0  0  0  0  0  0
    1.5000   -5.1962    0.0000 N   0  0  0  0  0  0  0  0  0  0  0  0
    3.0000   -5.1962    0.0000 C   0  0  0  0  0  0  0  0  0  0  0  0
    3.7500   -3.8971    0.0000 C   0  0  0  0  0  0  0  0  0  0  0  0
    5.2500   -3.8971    0.0000 C   0  0  0  0  0  0  0  0  0  0  0  0
    6.0000   -2.5981    0.0000 O   0  0  0  0  0  0  0  0  0  0  0  0
    6.0000   -5.1962    0.0000 N   0  0  0  0  0  0  0  0  0  0  0  0
    7.5000   -5.1962    0.0000 C   0  0  0  0  0  0  0  0  0  0  0  0
    8.2500   -6.4952    0.0000 C   0  0  0  0  0  0  0  0  0  0  0  0
    9.7500   -6.4952    0.0000 C   0  0  0  0  0  0  0  0  0  0  0  0
   10.5000   -7.7942    0.0000 N   0  0  0  0  0  0  0  0  0  0  0  0
   12.0000   -7.7942    0.0000 C   0  0  0  0  0  0  0  0  0  0  0  0
    9.7500   -9.0933    0.0000 C   0  0  0  0  0  0  0  0  0  0  0  0
    5.2500   -6.4952    0.0000 C   0  0  0  0  0  0  0  0  0  0  0  0
    3.7500   -6.4952    0.0000 O   0  0  0  0  0  0  0  0  0  0  0  0
    6.0000   -7.7942    0.0000 N   0  0  0  0  0  0  0  0  0  0  0  0
    5.2500   -9.0933    0.0000 C   0  0  0  0  0  0  0  0  0  0  0  0
    6.0000  -10.3923    0.0000 C   0  0  0  0  0  0  0  0  0  0  0  0
    3.0000   -2.5981    0.0000 C   0  0  0  0  0  0  0  0  0  0  0  0
    1.5000   -2.5981    0.0000 C   0  0  0  0  0  0  0  0  0  0  0  0
    0.7500   -1.2990    0.0000 C   0  0  0  0  0  0  0  0  0  0  0  0
    1.5000    0.0000    0.0000 C   0  0  0  0  0  0  0  0  0  0  0  0
    0.7500    1.2990    0.0000 C   0  0  0  0  0  0  0  0  0  0  0  0
   -0.7500    1.2990    0.0000 C   0  0  0  0  0  0  0  0  0  0  0  0
   -1.5000    0.0000    0.0000 C   0  0  0  0  0  0  0  0  0  0  0  0
   -2.9266   -0.4635    0.0000 N   0  0  0  0  0  0  0  0  0  0  0  0
   -2.9266   -1.9635    0.0000 C   0  0  0  0  0  0  0  0  0  0  0  0
   -1.5000   -2.5981    0.0000 C   0  0  0  0  0  0  0  0  0  0  0  0
   -0.7500   -1.2990    0.0000 C   0  0  0  0  0  0  0  0  0  0  0  0
   -0.7500   -3.8971    0.0000 C   0  0  0  0  0  0  0  0  0  0  0  0
    0.7500   -3.8971    0.0000 C   0  0  0  0  0  0  0  0  0  0  0  0
  1  2  2  0
  2  3  1  0
  3  4  1  0
  4  5  1  0
  5  6  1  0
  6  7  1  1
  7  8  2  0
  7  9  1  0
  9 10  1  0
 10 11  1  0
 11 12  1  0
 12 13  1  0
 13 14  1  0
 13 15  1  0
  9 16  1  0
 16 17  2  0
 16 18  1  0
 18 19  1  0
 19 20  1  0
  6 21  1  0
 22 21  1  1
 22 23  1  0
 23 24  2  0
 24 25  1  0
 25 26  2  0
 26 27  1  0
 27 28  1  0
 28 29  1  0
 29 30  2  0
 30 31  1  0
 30 32  1  0
 33 32  1  6
 33  4  1  0
 33 22  1  0
 31 23  1  0
 31 27  2  0
M  END
>  <assay_chembl_id>  (277) 
CHEMBL2328669

>  <assay_description>  (277) 
Displacement of [125I](+/-)DOI from human 5-HT2B receptor transfected in CHO cell membrane after 60 mins by scintillation counting analysis

>  <parent_molecule_chembl_id>  (277) 
CHEMBL1201087

>  <canonical_smiles>  (277) 
C=CCN1C[C@H](C(=O)N(CCCN(C)C)C(=O)NCC)C[C@@H]2c3cccc4[nH]cc(c34)C[C@H]21

>  <standard_type>  (277) 
Ki

>  <standard_relation>  (277) 
=

>  <standard_value>  (277) 
1.4

>  <standard_units>  (277) 
nM

>  <target_pref_name>  (277) 
Serotonin 2b (5-HT2b) receptor

>  <target_chembl_id>  (277) 
CHEMBL1833

>  <target_organism>  (277) 
Homo sapiens

>  <pchembl_median>  (277) 
7.28

$$$$
CHEMBL2337491
     RDKit          2D

 19 20  0  0  0  0  0  0  0  0999 V2000
    2.2760    0.0000    0.0000 Cl  0  0  0  0  0  0  0  0  0  0  0  0
   -0.0967    5.1517    0.0000 O   0  0  0  0  0  0  0  0  0  0  0  0
   -0.4086    3.6844    0.0000 C   0  0  0  0  0  0  0  0  0  0  0  0
    0.7062    2.6807    0.0000 N   0  0  0  0  0  0  0  0  0  0  0  0
    0.3943    1.2135    0.0000 C   0  0  0  0  0  0  0  0  0  0  0  0
    1.2760    0.0000    0.0000 C   0  0  0  0  0  0  0  0  0  0  0  0
    0.3943   -1.2135    0.0000 N   0  0  0  0  0  0  0  0  0  0  0  0
   -1.0323   -0.7500    0.0000 C   0  0  0  0  0  0  0  0  0  0  0  0
   -1.0323    0.7500    0.0000 C   0  0  0  0  0  0  0  0  0  0  0  0
   -2.1470    1.7537    0.0000 C   0  0  0  0  0  0  0  0  0  0  0  0
   -3.5736    1.2902    0.0000 C   0  0  0  0  0  0  0  0  0  0  0  0
   -4.6883    2.2939    0.0000 C   0  0  0  0  0  0  0  0  0  0  0  0
   -4.3764    3.7611    0.0000 C   0  0  0  0  0  0  0  0  0  0  0  0
   -2.9499    4.2246    0.0000 C   0  0  0  0  0  0  0  0  0  0  0  0
   -2.6380    5.6918    0.0000 C   0  0  0  0  0  0  0  0  0  0  0  0
   -2.3261    7.1591    0.0000 F   0  0  0  0  0  0  0  0  0  0  0  0
   -4.1052    6.0037    0.0000 F   0  0  0  0  0  0  0  0  0  0  0  0
   -1.1708    5.3800    0.0000 F   0  0  0  0  0  0  0  0  0  0  0  0
   -1.8351    3.2209    0.0000 C   0  0  0  0  0  0  0  0  0  0  0  0
  2  3  2  0
  3  4  1  0
  4  5  1  0
  5  6  1  6
  6  7  1  0
  7  8  1  0
  9  8  1  1
  9 10  1  0
 10 11  2  0
 11 12  1  0
 12 13  2  0
 13 14  1  0
 14 15  1  0
 15 16  1  0
 15 17  1  0
 15 18  1  0
 14 19  2  0
 19  3  1  0
  9  5  1  0
 19 10  1  0
M  END
>  <assay_chembl_id>  (278) 
CHEMBL2339050

>  <assay_description>  (278) 
Displacement of [3H]-LSD from human recombinant 5-HT2B receptor expressed in HEK293E cells after 45 mins by scintillation counting analysis

>  <parent_molecule_chembl_id>  (278) 
CHEMBL2364961

>  <canonical_smiles>  (278) 
Cl.O=C1N[C@@H]2CNC[C@H]2c2cccc(C(F)(F)F)c21

>  <standard_type>  (278) 
Ki

>  <standard_relation>  (278) 
=

>  <standard_value>  (278) 
6244.0

>  <standard_units>  (278) 
nM

>  <target_pref_name>  (278) 
Serotonin 2b (5-HT2b) receptor

>  <target_chembl_id>  (278) 
CHEMBL1833

>  <target_organism>  (278) 
Homo sapiens

>  <pchembl_median>  (278) 
8.96

$$$$
CHEMBL2337495
     RDKit          2D

 15 16  0  0  0  0  0  0  0  0999 V2000
    4.1240    0.0000    0.0000 Cl  0  0  0  0  0  0  0  0  0  0  0  0
   -3.0000   -2.5981    0.0000 O   0  0  0  0  0  0  0  0  0  0  0  0
   -1.5000   -2.5981    0.0000 C   0  0  0  0  0  0  0  0  0  0  0  0
   -0.7500   -3.8971    0.0000 N   0  0  0  0  0  0  0  0  0  0  0  0
    0.7500   -3.8971    0.0000 C   0  0  0  0  0  0  0  0  0  0  0  0
    1.7537   -5.0118    0.0000 C   0  0  0  0  0  0  0  0  0  0  0  0
    3.1240   -4.4017    0.0000 N   0  0  0  0  0  0  0  0  0  0  0  0
    2.9672   -2.9099    0.0000 C   0  0  0  0  0  0  0  0  0  0  0  0
    1.5000   -2.5981    0.0000 C   0  0  0  0  0  0  0  0  0  0  0  0
    0.7500   -1.2990    0.0000 C   0  0  0  0  0  0  0  0  0  0  0  0
    1.5000    0.0000    0.0000 C   0  0  0  0  0  0  0  0  0  0  0  0
    0.7500    1.2990    0.0000 C   0  0  0  0  0  0  0  0  0  0  0  0
   -0.7500    1.2990    0.0000 C   0  0  0  0  0  0  0  0  0  0  0  0
   -1.5000    0.0000    0.0000 C   0  0  0  0  0  0  0  0  0  0  0  0
   -0.7500   -1.2990    0.0000 C   0  0  0  0  0  0  0  0  0  0  0  0
  2  3  2  0
  3  4  1  0
  4  5  1  0
  5  6  1  6
  6  7  1  0
  7  8  1  0
  9  8  1  1
  9 10  1  0
 10 11  2  0
 11 12  1  0
 12 13  2  0
 13 14  1  0
 14 15  2  0
 15  3  1  0
  9  5  1  0
 15 10  1  0
M  END
>  <assay_chembl_id>  (279) 
CHEMBL2339050

>  <assay_description>  (279) 
Displacement of [3H]-LSD from human recombinant 5-HT2B receptor expressed in HEK293E cells after 45 mins by scintillation counting analysis

>  <parent_molecule_chembl_id>  (279) 
CHEMBL2365471

>  <canonical_smiles>  (279) 
Cl.O=C1N[C@H]2CNC[C@@H]2c2ccccc21

>  <standard_type>  (279) 
Ki

>  <standard_relation>  (279) 
=

>  <standard_value>  (279) 
5812.0

>  <standard_units>  (279) 
nM

>  <target_pref_name>  (279) 
Serotonin 2b (5-HT2b) receptor

>  <target_chembl_id>  (279) 
CHEMBL1833

>  <target_organism>  (279) 
Homo sapiens

>  <pchembl_median>  (279) 
7.56

$$$$
CHEMBL2337489
     RDKit          2D

 19 20  0  0  0  0  0  0  0  0999 V2000
    2.2760    0.0000    0.0000 Cl  0  0  0  0  0  0  0  0  0  0  0  0
   -0.0967    5.1517    0.0000 O   0  0  0  0  0  0  0  0  0  0  0  0
   -0.4086    3.6844    0.0000 C   0  0  0  0  0  0  0  0  0  0  0  0
    0.7062    2.6807    0.0000 N   0  0  0  0  0  0  0  0  0  0  0  0
    0.3943    1.2135    0.0000 C   0  0  0  0  0  0  0  0  0  0  0  0
    1.2760    0.0000    0.0000 C   0  0  0  0  0  0  0  0  0  0  0  0
    0.3943   -1.2135    0.0000 N   0  0  0  0  0  0  0  0  0  0  0  0
   -1.0323   -0.7500    0.0000 C   0  0  0  0  0  0  0  0  0  0  0  0
   -1.0323    0.7500    0.0000 C   0  0  0  0  0  0  0  0  0  0  0  0
   -2.1470    1.7537    0.0000 C   0  0  0  0  0  0  0  0  0  0  0  0
   -3.5736    1.2902    0.0000 C   0  0  0  0  0  0  0  0  0  0  0  0
   -4.6883    2.2939    0.0000 C   0  0  0  0  0  0  0  0  0  0  0  0
   -4.3764    3.7611    0.0000 C   0  0  0  0  0  0  0  0  0  0  0  0
   -2.9499    4.2246    0.0000 C   0  0  0  0  0  0  0  0  0  0  0  0
   -2.6380    5.6918    0.0000 C   0  0  0  0  0  0  0  0  0  0  0  0
   -2.3261    7.1591    0.0000 F   0  0  0  0  0  0  0  0  0  0  0  0
   -4.1052    6.0037    0.0000 F   0  0  0  0  0  0  0  0  0  0  0  0
   -1.1708    5.3800    0.0000 F   0  0  0  0  0  0  0  0  0  0  0  0
   -1.8351    3.2209    0.0000 C   0  0  0  0  0  0  0  0  0  0  0  0
  2  3  2  0
  3  4  1  0
  4  5  1  0
  5  6  1  1
  6  7  1  0
  7  8  1  0
  9  8  1  1
  9 10  1  0
 10 11  2  0
 11 12  1  0
 12 13  2  0
 13 14  1  0
 14 15  1  0
 15 16  1  0
 15 17  1  0
 15 18  1  0
 14 19  2  0
 19  3  1  0
  9  5  1  0
 19 10  1  0
M  END
>  <assay_chembl_id>  (280) 
CHEMBL2339050

>  <assay_description>  (280) 
Displacement of [3H]-LSD from human recombinant 5-HT2B receptor expressed in HEK293E cells after 45 mins by scintillation counting analysis

>  <parent_molecule_chembl_id>  (280) 
CHEMBL2364893

>  <canonical_smiles>  (280) 
Cl.O=C1N[C@H]2CNC[C@H]2c2cccc(C(F)(F)F)c21

>  <standard_type>  (280) 
Ki

>  <standard_relation>  (280) 
=

>  <standard_value>  (280) 
2373.0

>  <standard_units>  (280) 
nM

>  <target_pref_name>  (280) 
Serotonin 2b (5-HT2b) receptor

>  <target_chembl_id>  (280) 
CHEMBL1833

>  <target_organism>  (280) 
Homo sapiens

>  <pchembl_median>  (280) 
8.62

$$$$
CHEMBL2337502
     RDKit          2D

 19 20  0  0  0  0  0  0  0  0999 V2000
    4.9859    4.0713    0.0000 C   0  0  0  0  0  0  0  0  0  0  0  0
    3.8712    5.0750    0.0000 C   0  0  0  0  0  0  0  0  0  0  0  0
    2.4446    4.6115    0.0000 C   0  0  0  0  0  0  0  0  0  0  0  0
    1.3299    5.6152    0.0000 C   0  0  0  0  0  0  0  0  0  0  0  0
   -0.0967    5.1517    0.0000 C   0  0  0  0  0  0  0  0  0  0  0  0
   -1.2114    6.1554    0.0000 Cl  0  0  0  0  0  0  0  0  0  0  0  0
   -0.4086    3.6844    0.0000 C   0  0  0  0  0  0  0  0  0  0  0  0
    0.7062    2.6807    0.0000 C   0  0  0  0  0  0  0  0  0  0  0  0
    2.1328    3.1443    0.0000 C   0  0  0  0  0  0  0  0  0  0  0  0
    0.3943    1.2135    0.0000 C   0  0  0  0  0  0  0  0  0  0  0  0
    1.2760    0.0000    0.0000 C   0  0  0  0  0  0  0  0  0  0  0  0
    0.3943   -1.2135    0.0000 N   0  0  0  0  0  0  0  0  0  0  0  0
   -1.0323   -0.7500    0.0000 C   0  0  0  0  0  0  0  0  0  0  0  0
   -1.0323    0.7500    0.0000 C   0  0  0  0  0  0  0  0  0  0  0  0
   -2.1470    1.7537    0.0000 N   0  0  0  0  0  0  0  0  0  0  0  0
   -3.5736    1.2902    0.0000 C   0  0  0  0  0  0  0  0  0  0  0  0
   -1.8351    3.2209    0.0000 C   0  0  0  0  0  0  0  0  0  0  0  0
   -2.9499    4.2246    0.0000 O   0  0  0  0  0  0  0  0  0  0  0  0
    0.0000    7.1554    0.0000 Cl  0  0  0  0  0  0  0  0  0  0  0  0
  1  2  1  0
  2  3  1  0
  3  4  2  0
  4  5  1  0
  5  6  1  0
  5  7  2  0
  7  8  1  0
  8  9  2  0
  8 10  1  0
 10 11  1  1
 11 12  1  0
 12 13  1  0
 14 13  1  6
 14 15  1  0
 15 16  1  0
 15 17  1  0
 17 18  2  0
  9  3  1  0
 14 10  1  0
 17  7  1  0
M  END
>  <assay_chembl_id>  (281) 
CHEMBL2339050

>  <assay_description>  (281) 
Displacement of [3H]-LSD from human recombinant 5-HT2B receptor expressed in HEK293E cells after 45 mins by scintillation counting analysis

>  <parent_molecule_chembl_id>  (281) 
CHEMBL2365706

>  <canonical_smiles>  (281) 
CCc1cc(Cl)c2c(c1)[C@H]1CNC[C@@H]1N(C)C2=O.Cl

>  <standard_type>  (281) 
Ki

>  <standard_relation>  (281) 
=

>  <standard_value>  (281) 
1717.0

>  <standard_units>  (281) 
nM

>  <target_pref_name>  (281) 
Serotonin 2b (5-HT2b) receptor

>  <target_chembl_id>  (281) 
CHEMBL1833

>  <target_organism>  (281) 
Homo sapiens

>  <pchembl_median>  (281) 
5.9

$$$$
CHEMBL2337497
     RDKit          2D

 18 19  0  0  0  0  0  0  0  0999 V2000
    4.9859    4.0713    0.0000 C   0  0  0  0  0  0  0  0  0  0  0  0
    3.8712    5.0750    0.0000 C   0  0  0  0  0  0  0  0  0  0  0  0
    2.4446    4.6115    0.0000 C   0  0  0  0  0  0  0  0  0  0  0  0
    1.3299    5.6152    0.0000 C   0  0  0  0  0  0  0  0  0  0  0  0
   -0.0967    5.1517    0.0000 C   0  0  0  0  0  0  0  0  0  0  0  0
   -1.2114    6.1554    0.0000 Cl  0  0  0  0  0  0  0  0  0  0  0  0
   -0.4086    3.6844    0.0000 C   0  0  0  0  0  0  0  0  0  0  0  0
    0.7062    2.6807    0.0000 C   0  0  0  0  0  0  0  0  0  0  0  0
    2.1328    3.1443    0.0000 C   0  0  0  0  0  0  0  0  0  0  0  0
    0.3943    1.2135    0.0000 C   0  0  0  0  0  0  0  0  0  0  0  0
    1.2760    0.0000    0.0000 C   0  0  0  0  0  0  0  0  0  0  0  0
    0.3943   -1.2135    0.0000 N   0  0  0  0  0  0  0  0  0  0  0  0
   -1.0323   -0.7500    0.0000 C   0  0  0  0  0  0  0  0  0  0  0  0
   -1.0323    0.7500    0.0000 C   0  0  0  0  0  0  0  0  0  0  0  0
   -2.1470    1.7537    0.0000 N   0  0  0  0  0  0  0  0  0  0  0  0
   -1.8351    3.2209    0.0000 C   0  0  0  0  0  0  0  0  0  0  0  0
   -2.9499    4.2246    0.0000 O   0  0  0  0  0  0  0  0  0  0  0  0
    0.0000    7.1554    0.0000 Cl  0  0  0  0  0  0  0  0  0  0  0  0
  1  2  1  0
  2  3  1  0
  3  4  2  0
  4  5  1  0
  5  6  1  0
  5  7  2  0
  7  8  1  0
  8  9  2  0
  8 10  1  0
 10 11  1  1
 11 12  1  0
 12 13  1  0
 14 13  1  6
 14 15  1  0
 15 16  1  0
 16 17  2  0
  9  3  1  0
 14 10  1  0
 16  7  1  0
M  END
>  <assay_chembl_id>  (282) 
CHEMBL2339050

>  <assay_description>  (282) 
Displacement of [3H]-LSD from human recombinant 5-HT2B receptor expressed in HEK293E cells after 45 mins by scintillation counting analysis

>  <parent_molecule_chembl_id>  (282) 
CHEMBL2364998

>  <canonical_smiles>  (282) 
CCc1cc(Cl)c2c(c1)[C@H]1CNC[C@@H]1NC2=O.Cl

>  <standard_type>  (282) 
Ki

>  <standard_relation>  (282) 
=

>  <standard_value>  (282) 
905.0

>  <standard_units>  (282) 
nM

>  <target_pref_name>  (282) 
Serotonin 2b (5-HT2b) receptor

>  <target_chembl_id>  (282) 
CHEMBL1833

>  <target_organism>  (282) 
Homo sapiens

>  <pchembl_median>  (282) 
8.3

$$$$
CHEMBL2337498
     RDKit          2D

 19 20  0  0  0  0  0  0  0  0999 V2000
    6.4125    4.5348    0.0000 C   0  0  0  0  0  0  0  0  0  0  0  0
    4.9859    4.0713    0.0000 C   0  0  0  0  0  0  0  0  0  0  0  0
    3.8712    5.0750    0.0000 C   0  0  0  0  0  0  0  0  0  0  0  0
    2.4446    4.6115    0.0000 C   0  0  0  0  0  0  0  0  0  0  0  0
    1.3299    5.6152    0.0000 C   0  0  0  0  0  0  0  0  0  0  0  0
   -0.0967    5.1517    0.0000 C   0  0  0  0  0  0  0  0  0  0  0  0
   -1.2114    6.1554    0.0000 Cl  0  0  0  0  0  0  0  0  0  0  0  0
   -0.4086    3.6844    0.0000 C   0  0  0  0  0  0  0  0  0  0  0  0
    0.7062    2.6807    0.0000 C   0  0  0  0  0  0  0  0  0  0  0  0
    2.1328    3.1443    0.0000 C   0  0  0  0  0  0  0  0  0  0  0  0
    0.3943    1.2135    0.0000 C   0  0  0  0  0  0  0  0  0  0  0  0
    1.2760    0.0000    0.0000 C   0  0  0  0  0  0  0  0  0  0  0  0
    0.3943   -1.2135    0.0000 N   0  0  0  0  0  0  0  0  0  0  0  0
   -1.0323   -0.7500    0.0000 C   0  0  0  0  0  0  0  0  0  0  0  0
   -1.0323    0.7500    0.0000 C   0  0  0  0  0  0  0  0  0  0  0  0
   -2.1470    1.7537    0.0000 N   0  0  0  0  0  0  0  0  0  0  0  0
   -1.8351    3.2209    0.0000 C   0  0  0  0  0  0  0  0  0  0  0  0
   -2.9499    4.2246    0.0000 O   0  0  0  0  0  0  0  0  0  0  0  0
    0.0000    7.1554    0.0000 Cl  0  0  0  0  0  0  0  0  0  0  0  0
  1  2  1  0
  2  3  1  0
  3  4  1  0
  4  5  2  0
  5  6  1  0
  6  7  1  0
  6  8  2  0
  8  9  1  0
  9 10  2  0
  9 11  1  0
 11 12  1  1
 12 13  1  0
 13 14  1  0
 15 14  1  6
 15 16  1  0
 16 17  1  0
 17 18  2  0
 10  4  1  0
 15 11  1  0
 17  8  1  0
M  END
>  <assay_chembl_id>  (283) 
CHEMBL2339050

>  <assay_description>  (283) 
Displacement of [3H]-LSD from human recombinant 5-HT2B receptor expressed in HEK293E cells after 45 mins by scintillation counting analysis

>  <parent_molecule_chembl_id>  (283) 
CHEMBL2365254

>  <canonical_smiles>  (283) 
CCCc1cc(Cl)c2c(c1)[C@H]1CNC[C@@H]1NC2=O.Cl

>  <standard_type>  (283) 
Ki

>  <standard_relation>  (283) 
=

>  <standard_value>  (283) 
776.0

>  <standard_units>  (283) 
nM

>  <target_pref_name>  (283) 
Serotonin 2b (5-HT2b) receptor

>  <target_chembl_id>  (283) 
CHEMBL1833

>  <target_organism>  (283) 
Homo sapiens

>  <pchembl_median>  (283) 
6.84

$$$$
CHEMBL2337105
     RDKit          2D

 19 20  0  0  0  0  0  0  0  0999 V2000
   -2.6380    5.6918    0.0000 C   0  0  0  0  0  0  0  0  0  0  0  0
   -2.9499    4.2246    0.0000 C   0  0  0  0  0  0  0  0  0  0  0  0
   -4.3764    3.7611    0.0000 C   0  0  0  0  0  0  0  0  0  0  0  0
   -4.6883    2.2939    0.0000 C   0  0  0  0  0  0  0  0  0  0  0  0
   -6.1149    1.8303    0.0000 C   0  0  0  0  0  0  0  0  0  0  0  0
   -7.2296    2.8340    0.0000 C   0  0  0  0  0  0  0  0  0  0  0  0
   -6.4268    0.3631    0.0000 C   0  0  0  0  0  0  0  0  0  0  0  0
   -3.5736    1.2902    0.0000 C   0  0  0  0  0  0  0  0  0  0  0  0
   -2.1470    1.7537    0.0000 C   0  0  0  0  0  0  0  0  0  0  0  0
   -1.8351    3.2209    0.0000 C   0  0  0  0  0  0  0  0  0  0  0  0
   -0.4086    3.6844    0.0000 C   0  0  0  0  0  0  0  0  0  0  0  0
   -0.0967    5.1517    0.0000 O   0  0  0  0  0  0  0  0  0  0  0  0
    0.7062    2.6807    0.0000 N   0  0  0  0  0  0  0  0  0  0  0  0
    0.3943    1.2135    0.0000 C   0  0  0  0  0  0  0  0  0  0  0  0
    1.2760    0.0000    0.0000 C   0  0  0  0  0  0  0  0  0  0  0  0
    0.3943   -1.2135    0.0000 N   0  0  0  0  0  0  0  0  0  0  0  0
   -1.0323   -0.7500    0.0000 C   0  0  0  0  0  0  0  0  0  0  0  0
   -1.0323    0.7500    0.0000 C   0  0  0  0  0  0  0  0  0  0  0  0
    0.0000    6.6918    0.0000 Cl  0  0  0  0  0  0  0  0  0  0  0  0
  1  2  1  0
  2  3  2  0
  3  4  1  0
  4  5  1  0
  5  6  1  0
  5  7  1  0
  4  8  2  0
  8  9  1  0
  9 10  2  0
 10 11  1  0
 11 12  2  0
 11 13  1  0
 13 14  1  0
 14 15  1  1
 15 16  1  0
 16 17  1  0
 18 17  1  6
 10  2  1  0
 18 14  1  0
 18  9  1  0
M  END
>  <assay_chembl_id>  (284) 
CHEMBL2339050

>  <assay_description>  (284) 
Displacement of [3H]-LSD from human recombinant 5-HT2B receptor expressed in HEK293E cells after 45 mins by scintillation counting analysis

>  <parent_molecule_chembl_id>  (284) 
CHEMBL2365394

>  <canonical_smiles>  (284) 
Cc1cc(C(C)C)cc2c1C(=O)N[C@H]1CNC[C@H]21.Cl

>  <standard_type>  (284) 
Ki

>  <standard_relation>  (284) 
=

>  <standard_value>  (284) 
535.0

>  <standard_units>  (284) 
nM

>  <target_pref_name>  (284) 
Serotonin 2b (5-HT2b) receptor

>  <target_chembl_id>  (284) 
CHEMBL1833

>  <target_organism>  (284) 
Homo sapiens

>  <pchembl_median>  (284) 
7.13

$$$$
CHEMBL2337496
     RDKit          2D

 17 18  0  0  0  0  0  0  0  0999 V2000
    3.8712    5.0750    0.0000 C   0  0  0  0  0  0  0  0  0  0  0  0
    2.4446    4.6115    0.0000 C   0  0  0  0  0  0  0  0  0  0  0  0
    1.3299    5.6152    0.0000 C   0  0  0  0  0  0  0  0  0  0  0  0
   -0.0967    5.1517    0.0000 C   0  0  0  0  0  0  0  0  0  0  0  0
   -1.2114    6.1554    0.0000 Cl  0  0  0  0  0  0  0  0  0  0  0  0
   -0.4086    3.6844    0.0000 C   0  0  0  0  0  0  0  0  0  0  0  0
    0.7062    2.6807    0.0000 C   0  0  0  0  0  0  0  0  0  0  0  0
    2.1328    3.1443    0.0000 C   0  0  0  0  0  0  0  0  0  0  0  0
    0.3943    1.2135    0.0000 C   0  0  0  0  0  0  0  0  0  0  0  0
    1.2760    0.0000    0.0000 C   0  0  0  0  0  0  0  0  0  0  0  0
    0.3943   -1.2135    0.0000 N   0  0  0  0  0  0  0  0  0  0  0  0
   -1.0323   -0.7500    0.0000 C   0  0  0  0  0  0  0  0  0  0  0  0
   -1.0323    0.7500    0.0000 C   0  0  0  0  0  0  0  0  0  0  0  0
   -2.1470    1.7537    0.0000 N   0  0  0  0  0  0  0  0  0  0  0  0
   -1.8351    3.2209    0.0000 C   0  0  0  0  0  0  0  0  0  0  0  0
   -2.9499    4.2246    0.0000 O   0  0  0  0  0  0  0  0  0  0  0  0
    4.8712    0.0000    0.0000 Cl  0  0  0  0  0  0  0  0  0  0  0  0
  1  2  1  0
  2  3  2  0
  3  4  1  0
  4  5  1  0
  4  6  2  0
  6  7  1  0
  7  8  2  0
  7  9  1  0
  9 10  1  1
 10 11  1  0
 11 12  1  0
 13 12  1  6
 13 14  1  0
 14 15  1  0
 15 16  2  0
  8  2  1  0
 13  9  1  0
 15  6  1  0
M  END
>  <assay_chembl_id>  (285) 
CHEMBL2339050

>  <assay_description>  (285) 
Displacement of [3H]-LSD from human recombinant 5-HT2B receptor expressed in HEK293E cells after 45 mins by scintillation counting analysis

>  <parent_molecule_chembl_id>  (285) 
CHEMBL2365472

>  <canonical_smiles>  (285) 
Cc1cc(Cl)c2c(c1)[C@H]1CNC[C@@H]1NC2=O.Cl

>  <standard_type>  (285) 
Ki

>  <standard_relation>  (285) 
=

>  <standard_value>  (285) 
478.0

>  <standard_units>  (285) 
nM

>  <target_pref_name>  (285) 
Serotonin 2b (5-HT2b) receptor

>  <target_chembl_id>  (285) 
CHEMBL1833

>  <target_organism>  (285) 
Homo sapiens

>  <pchembl_median>  (285) 
6.28

$$$$
CHEMBL2337503
     RDKit          2D

 17 18  0  0  0  0  0  0  0  0999 V2000
    3.8712    5.0750    0.0000 C   0  0  0  0  0  0  0  0  0  0  0  0
    2.4446    4.6115    0.0000 C   0  0  0  0  0  0  0  0  0  0  0  0
    1.3299    5.6152    0.0000 C   0  0  0  0  0  0  0  0  0  0  0  0
   -0.0967    5.1517    0.0000 C   0  0  0  0  0  0  0  0  0  0  0  0
   -1.2114    6.1554    0.0000 C   0  0  0  0  0  0  0  0  0  0  0  0
   -0.4086    3.6844    0.0000 C   0  0  0  0  0  0  0  0  0  0  0  0
    0.7062    2.6807    0.0000 C   0  0  0  0  0  0  0  0  0  0  0  0
    2.1328    3.1443    0.0000 C   0  0  0  0  0  0  0  0  0  0  0  0
    0.3943    1.2135    0.0000 C   0  0  0  0  0  0  0  0  0  0  0  0
    1.2760    0.0000    0.0000 C   0  0  0  0  0  0  0  0  0  0  0  0
    0.3943   -1.2135    0.0000 N   0  0  0  0  0  0  0  0  0  0  0  0
   -1.0323   -0.7500    0.0000 C   0  0  0  0  0  0  0  0  0  0  0  0
   -1.0323    0.7500    0.0000 C   0  0  0  0  0  0  0  0  0  0  0  0
   -2.1470    1.7537    0.0000 N   0  0  0  0  0  0  0  0  0  0  0  0
   -1.8351    3.2209    0.0000 C   0  0  0  0  0  0  0  0  0  0  0  0
   -2.9499    4.2246    0.0000 O   0  0  0  0  0  0  0  0  0  0  0  0
    4.8712    0.0000    0.0000 Cl  0  0  0  0  0  0  0  0  0  0  0  0
  1  2  1  0
  2  3  2  0
  3  4  1  0
  4  5  1  0
  4  6  2  0
  6  7  1  0
  7  8  2  0
  7  9  1  0
  9 10  1  1
 10 11  1  0
 11 12  1  0
 13 12  1  6
 13 14  1  0
 14 15  1  0
 15 16  2  0
  8  2  1  0
 13  9  1  0
 15  6  1  0
M  END
>  <assay_chembl_id>  (286) 
CHEMBL2339050

>  <assay_description>  (286) 
Displacement of [3H]-LSD from human recombinant 5-HT2B receptor expressed in HEK293E cells after 45 mins by scintillation counting analysis

>  <parent_molecule_chembl_id>  (286) 
CHEMBL2365465

>  <canonical_smiles>  (286) 
Cc1cc(C)c2c(c1)[C@H]1CNC[C@@H]1NC2=O.Cl

>  <standard_type>  (286) 
Ki

>  <standard_relation>  (286) 
=

>  <standard_value>  (286) 
191.0

>  <standard_units>  (286) 
nM

>  <target_pref_name>  (286) 
Serotonin 2b (5-HT2b) receptor

>  <target_chembl_id>  (286) 
CHEMBL1833

>  <target_organism>  (286) 
Homo sapiens

>  <pchembl_median>  (286) 
7.92

$$$$
CHEMBL2337504
     RDKit          2D

 18 19  0  0  0  0  0  0  0  0999 V2000
    4.9859    4.0713    0.0000 C   0  0  0  0  0  0  0  0  0  0  0  0
    3.8712    5.0750    0.0000 C   0  0  0  0  0  0  0  0  0  0  0  0
    2.4446    4.6115    0.0000 C   0  0  0  0  0  0  0  0  0  0  0  0
    1.3299    5.6152    0.0000 C   0  0  0  0  0  0  0  0  0  0  0  0
   -0.0967    5.1517    0.0000 C   0  0  0  0  0  0  0  0  0  0  0  0
   -1.2114    6.1554    0.0000 C   0  0  0  0  0  0  0  0  0  0  0  0
   -0.4086    3.6844    0.0000 C   0  0  0  0  0  0  0  0  0  0  0  0
    0.7062    2.6807    0.0000 C   0  0  0  0  0  0  0  0  0  0  0  0
    2.1328    3.1443    0.0000 C   0  0  0  0  0  0  0  0  0  0  0  0
    0.3943    1.2135    0.0000 C   0  0  0  0  0  0  0  0  0  0  0  0
    1.2760    0.0000    0.0000 C   0  0  0  0  0  0  0  0  0  0  0  0
    0.3943   -1.2135    0.0000 N   0  0  0  0  0  0  0  0  0  0  0  0
   -1.0323   -0.7500    0.0000 C   0  0  0  0  0  0  0  0  0  0  0  0
   -1.0323    0.7500    0.0000 C   0  0  0  0  0  0  0  0  0  0  0  0
   -2.1470    1.7537    0.0000 N   0  0  0  0  0  0  0  0  0  0  0  0
   -1.8351    3.2209    0.0000 C   0  0  0  0  0  0  0  0  0  0  0  0
   -2.9499    4.2246    0.0000 O   0  0  0  0  0  0  0  0  0  0  0  0
    0.0000    7.1554    0.0000 Cl  0  0  0  0  0  0  0  0  0  0  0  0
  1  2  1  0
  2  3  1  0
  3  4  2  0
  4  5  1  0
  5  6  1  0
  5  7  2  0
  7  8  1  0
  8  9  2  0
  8 10  1  0
 10 11  1  1
 11 12  1  0
 12 13  1  0
 14 13  1  6
 14 15  1  0
 15 16  1  0
 16 17  2  0
  9  3  1  0
 14 10  1  0
 16  7  1  0
M  END
>  <assay_chembl_id>  (287) 
CHEMBL2339050

>  <assay_description>  (287) 
Displacement of [3H]-LSD from human recombinant 5-HT2B receptor expressed in HEK293E cells after 45 mins by scintillation counting analysis

>  <parent_molecule_chembl_id>  (287) 
CHEMBL2365200

>  <canonical_smiles>  (287) 
CCc1cc(C)c2c(c1)[C@H]1CNC[C@@H]1NC2=O.Cl

>  <standard_type>  (287) 
Ki

>  <standard_relation>  (287) 
=

>  <standard_value>  (287) 
188.0

>  <standard_units>  (287) 
nM

>  <target_pref_name>  (287) 
Serotonin 2b (5-HT2b) receptor

>  <target_chembl_id>  (287) 
CHEMBL1833

>  <target_organism>  (287) 
Homo sapiens

>  <pchembl_median>  (287) 
5.12

$$$$
CHEMBL2337104
     RDKit          2D

 19 21  0  0  0  0  0  0  0  0999 V2000
   -2.6380    5.6918    0.0000 C   0  0  0  0  0  0  0  0  0  0  0  0
   -2.9499    4.2246    0.0000 C   0  0  0  0  0  0  0  0  0  0  0  0
   -4.3764    3.7611    0.0000 C   0  0  0  0  0  0  0  0  0  0  0  0
   -4.6883    2.2939    0.0000 C   0  0  0  0  0  0  0  0  0  0  0  0
   -6.1149    1.8303    0.0000 C   0  0  0  0  0  0  0  0  0  0  0  0
   -7.1186    0.7156    0.0000 C   0  0  0  0  0  0  0  0  0  0  0  0
   -7.5821    2.1422    0.0000 C   0  0  0  0  0  0  0  0  0  0  0  0
   -3.5736    1.2902    0.0000 C   0  0  0  0  0  0  0  0  0  0  0  0
   -2.1470    1.7537    0.0000 C   0  0  0  0  0  0  0  0  0  0  0  0
   -1.8351    3.2209    0.0000 C   0  0  0  0  0  0  0  0  0  0  0  0
   -0.4086    3.6844    0.0000 C   0  0  0  0  0  0  0  0  0  0  0  0
   -0.0967    5.1517    0.0000 O   0  0  0  0  0  0  0  0  0  0  0  0
    0.7062    2.6807    0.0000 N   0  0  0  0  0  0  0  0  0  0  0  0
    0.3943    1.2135    0.0000 C   0  0  0  0  0  0  0  0  0  0  0  0
    1.2760    0.0000    0.0000 C   0  0  0  0  0  0  0  0  0  0  0  0
    0.3943   -1.2135    0.0000 N   0  0  0  0  0  0  0  0  0  0  0  0
   -1.0323   -0.7500    0.0000 C   0  0  0  0  0  0  0  0  0  0  0  0
   -1.0323    0.7500    0.0000 C   0  0  0  0  0  0  0  0  0  0  0  0
    0.0000    6.6918    0.0000 Cl  0  0  0  0  0  0  0  0  0  0  0  0
  1  2  1  0
  2  3  2  0
  3  4  1  0
  4  5  1  0
  5  6  1  0
  6  7  1  0
  4  8  2  0
  8  9  1  0
  9 10  2  0
 10 11  1  0
 11 12  2  0
 11 13  1  0
 13 14  1  0
 14 15  1  1
 15 16  1  0
 16 17  1  0
 18 17  1  6
 10  2  1  0
 18 14  1  0
  7  5  1  0
 18  9  1  0
M  END
>  <assay_chembl_id>  (288) 
CHEMBL2339050

>  <assay_description>  (288) 
Displacement of [3H]-LSD from human recombinant 5-HT2B receptor expressed in HEK293E cells after 45 mins by scintillation counting analysis

>  <parent_molecule_chembl_id>  (288) 
CHEMBL2365468

>  <canonical_smiles>  (288) 
Cc1cc(C2CC2)cc2c1C(=O)N[C@H]1CNC[C@H]21.Cl

>  <standard_type>  (288) 
Ki

>  <standard_relation>  (288) 
=

>  <standard_value>  (288) 
177.0

>  <standard_units>  (288) 
nM

>  <target_pref_name>  (288) 
Serotonin 2b (5-HT2b) receptor

>  <target_chembl_id>  (288) 
CHEMBL1833

>  <target_organism>  (288) 
Homo sapiens

>  <pchembl_median>  (288) 
7.33

$$$$
CHEMBL2337488
     RDKit          2D

 22 23  0  0  0  0  0  0  0  0999 V2000
   -7.2296    2.8340    0.0000 C   0  0  0  0  0  0  0  0  0  0  0  0
   -6.1149    1.8303    0.0000 C   0  0  0  0  0  0  0  0  0  0  0  0
   -4.6883    2.2939    0.0000 C   0  0  0  0  0  0  0  0  0  0  0  0
   -3.5736    1.2902    0.0000 C   0  0  0  0  0  0  0  0  0  0  0  0
   -2.1470    1.7537    0.0000 C   0  0  0  0  0  0  0  0  0  0  0  0
   -1.8351    3.2209    0.0000 C   0  0  0  0  0  0  0  0  0  0  0  0
   -2.9499    4.2246    0.0000 C   0  0  0  0  0  0  0  0  0  0  0  0
   -2.6380    5.6918    0.0000 C   0  0  0  0  0  0  0  0  0  0  0  0
   -2.3261    7.1591    0.0000 F   0  0  0  0  0  0  0  0  0  0  0  0
   -4.1052    6.0037    0.0000 F   0  0  0  0  0  0  0  0  0  0  0  0
   -1.1708    5.3800    0.0000 F   0  0  0  0  0  0  0  0  0  0  0  0
   -4.3764    3.7611    0.0000 C   0  0  0  0  0  0  0  0  0  0  0  0
   -0.4086    3.6844    0.0000 C   0  0  0  0  0  0  0  0  0  0  0  0
   -0.0967    5.1517    0.0000 O   0  0  0  0  0  0  0  0  0  0  0  0
    0.7062    2.6807    0.0000 N   0  0  0  0  0  0  0  0  0  0  0  0
    2.1328    3.1443    0.0000 C   0  0  0  0  0  0  0  0  0  0  0  0
    0.3943    1.2135    0.0000 C   0  0  0  0  0  0  0  0  0  0  0  0
    1.2760    0.0000    0.0000 C   0  0  0  0  0  0  0  0  0  0  0  0
    0.3943   -1.2135    0.0000 N   0  0  0  0  0  0  0  0  0  0  0  0
   -1.0323   -0.7500    0.0000 C   0  0  0  0  0  0  0  0  0  0  0  0
   -1.0323    0.7500    0.0000 C   0  0  0  0  0  0  0  0  0  0  0  0
    0.0000    8.1591    0.0000 Cl  0  0  0  0  0  0  0  0  0  0  0  0
  1  2  1  0
  2  3  1  0
  3  4  2  0
  4  5  1  0
  5  6  2  0
  6  7  1  0
  7  8  1  0
  8  9  1  0
  8 10  1  0
  8 11  1  0
  7 12  2  0
  6 13  1  0
 13 14  2  0
 13 15  1  0
 15 16  1  0
 15 17  1  0
 17 18  1  1
 18 19  1  0
 19 20  1  0
 21 20  1  6
 12  3  1  0
 21 17  1  0
 21  5  1  0
M  END
>  <assay_chembl_id>  (289) 
CHEMBL2339050

>  <assay_description>  (289) 
Displacement of [3H]-LSD from human recombinant 5-HT2B receptor expressed in HEK293E cells after 45 mins by scintillation counting analysis

>  <parent_molecule_chembl_id>  (289) 
CHEMBL2364960

>  <canonical_smiles>  (289) 
CCc1cc2c(c(C(F)(F)F)c1)C(=O)N(C)[C@H]1CNC[C@H]21.Cl

>  <standard_type>  (289) 
Ki

>  <standard_relation>  (289) 
=

>  <standard_value>  (289) 
140.0

>  <standard_units>  (289) 
nM

>  <target_pref_name>  (289) 
Serotonin 2b (5-HT2b) receptor

>  <target_chembl_id>  (289) 
CHEMBL1833

>  <target_organism>  (289) 
Homo sapiens

>  <pchembl_median>  (289) 
8.8

$$$$
CHEMBL2337106
     RDKit          2D

 21 22  0  0  0  0  0  0  0  0999 V2000
   -7.2296    2.8340    0.0000 C   0  0  0  0  0  0  0  0  0  0  0  0
   -6.1149    1.8303    0.0000 C   0  0  0  0  0  0  0  0  0  0  0  0
   -4.6883    2.2939    0.0000 C   0  0  0  0  0  0  0  0  0  0  0  0
   -3.5736    1.2902    0.0000 C   0  0  0  0  0  0  0  0  0  0  0  0
   -2.1470    1.7537    0.0000 C   0  0  0  0  0  0  0  0  0  0  0  0
   -1.8351    3.2209    0.0000 C   0  0  0  0  0  0  0  0  0  0  0  0
   -2.9499    4.2246    0.0000 C   0  0  0  0  0  0  0  0  0  0  0  0
   -2.6380    5.6918    0.0000 C   0  0  0  0  0  0  0  0  0  0  0  0
   -2.3261    7.1591    0.0000 F   0  0  0  0  0  0  0  0  0  0  0  0
   -4.1052    6.0037    0.0000 F   0  0  0  0  0  0  0  0  0  0  0  0
   -1.1708    5.3800    0.0000 F   0  0  0  0  0  0  0  0  0  0  0  0
   -4.3764    3.7611    0.0000 C   0  0  0  0  0  0  0  0  0  0  0  0
   -0.4086    3.6844    0.0000 C   0  0  0  0  0  0  0  0  0  0  0  0
   -0.0967    5.1517    0.0000 O   0  0  0  0  0  0  0  0  0  0  0  0
    0.7062    2.6807    0.0000 N   0  0  0  0  0  0  0  0  0  0  0  0
    0.3943    1.2135    0.0000 C   0  0  0  0  0  0  0  0  0  0  0  0
    1.2760    0.0000    0.0000 C   0  0  0  0  0  0  0  0  0  0  0  0
    0.3943   -1.2135    0.0000 N   0  0  0  0  0  0  0  0  0  0  0  0
   -1.0323   -0.7500    0.0000 C   0  0  0  0  0  0  0  0  0  0  0  0
   -1.0323    0.7500    0.0000 C   0  0  0  0  0  0  0  0  0  0  0  0
    0.0000    8.1591    0.0000 Cl  0  0  0  0  0  0  0  0  0  0  0  0
  1  2  1  0
  2  3  1  0
  3  4  2  0
  4  5  1  0
  5  6  2  0
  6  7  1  0
  7  8  1  0
  8  9  1  0
  8 10  1  0
  8 11  1  0
  7 12  2  0
  6 13  1  0
 13 14  2  0
 13 15  1  0
 15 16  1  0
 16 17  1  1
 17 18  1  0
 18 19  1  0
 20 19  1  6
 12  3  1  0
 20 16  1  0
 20  5  1  0
M  END
>  <assay_chembl_id>  (290) 
CHEMBL2339050

>  <assay_description>  (290) 
Displacement of [3H]-LSD from human recombinant 5-HT2B receptor expressed in HEK293E cells after 45 mins by scintillation counting analysis

>  <parent_molecule_chembl_id>  (290) 
CHEMBL2365079

>  <canonical_smiles>  (290) 
CCc1cc2c(c(C(F)(F)F)c1)C(=O)N[C@H]1CNC[C@H]21.Cl

>  <standard_type>  (290) 
Ki

>  <standard_relation>  (290) 
=

>  <standard_value>  (290) 
87.0

>  <standard_units>  (290) 
nM

>  <target_pref_name>  (290) 
Serotonin 2b (5-HT2b) receptor

>  <target_chembl_id>  (290) 
CHEMBL1833

>  <target_organism>  (290) 
Homo sapiens

>  <pchembl_median>  (290) 
7.92

$$$$
CHEMBL2337499
     RDKit          2D

 18 19  0  0  0  0  0  0  0  0999 V2000
    4.6741    2.6041    0.0000 C   0  0  0  0  0  0  0  0  0  0  0  0
    3.2475    2.1406    0.0000 C   0  0  0  0  0  0  0  0  0  0  0  0
    2.1328    3.1443    0.0000 C   0  0  0  0  0  0  0  0  0  0  0  0
    2.4446    4.6115    0.0000 C   0  0  0  0  0  0  0  0  0  0  0  0
    1.3299    5.6152    0.0000 C   0  0  0  0  0  0  0  0  0  0  0  0
   -0.0967    5.1517    0.0000 C   0  0  0  0  0  0  0  0  0  0  0  0
   -1.2114    6.1554    0.0000 Cl  0  0  0  0  0  0  0  0  0  0  0  0
   -0.4086    3.6844    0.0000 C   0  0  0  0  0  0  0  0  0  0  0  0
    0.7062    2.6807    0.0000 C   0  0  0  0  0  0  0  0  0  0  0  0
    0.3943    1.2135    0.0000 C   0  0  0  0  0  0  0  0  0  0  0  0
    1.2760    0.0000    0.0000 C   0  0  0  0  0  0  0  0  0  0  0  0
    0.3943   -1.2135    0.0000 N   0  0  0  0  0  0  0  0  0  0  0  0
   -1.0323   -0.7500    0.0000 C   0  0  0  0  0  0  0  0  0  0  0  0
   -1.0323    0.7500    0.0000 C   0  0  0  0  0  0  0  0  0  0  0  0
   -2.1470    1.7537    0.0000 N   0  0  0  0  0  0  0  0  0  0  0  0
   -1.8351    3.2209    0.0000 C   0  0  0  0  0  0  0  0  0  0  0  0
   -2.9499    4.2246    0.0000 O   0  0  0  0  0  0  0  0  0  0  0  0
    0.0000    7.1554    0.0000 Cl  0  0  0  0  0  0  0  0  0  0  0  0
  1  2  1  0
  2  3  1  0
  3  4  2  0
  4  5  1  0
  5  6  2  0
  6  7  1  0
  6  8  1  0
  8  9  2  0
  9 10  1  0
 10 11  1  1
 11 12  1  0
 12 13  1  0
 14 13  1  6
 14 15  1  0
 15 16  1  0
 16 17  2  0
  9  3  1  0
 14 10  1  0
 16  8  1  0
M  END
>  <assay_chembl_id>  (291) 
CHEMBL2339050

>  <assay_description>  (291) 
Displacement of [3H]-LSD from human recombinant 5-HT2B receptor expressed in HEK293E cells after 45 mins by scintillation counting analysis

>  <parent_molecule_chembl_id>  (291) 
CHEMBL2365399

>  <canonical_smiles>  (291) 
CCc1ccc(Cl)c2c1[C@H]1CNC[C@@H]1NC2=O.Cl

>  <standard_type>  (291) 
Ki

>  <standard_relation>  (291) 
=

>  <standard_value>  (291) 
79.0

>  <standard_units>  (291) 
nM

>  <target_pref_name>  (291) 
Serotonin 2b (5-HT2b) receptor

>  <target_chembl_id>  (291) 
CHEMBL1833

>  <target_organism>  (291) 
Homo sapiens

>  <pchembl_median>  (291) 
5.86

$$$$
CHEMBL2337490
     RDKit          2D

 19 20  0  0  0  0  0  0  0  0999 V2000
    2.2760    0.0000    0.0000 Cl  0  0  0  0  0  0  0  0  0  0  0  0
   -0.0967    5.1517    0.0000 O   0  0  0  0  0  0  0  0  0  0  0  0
   -0.4086    3.6844    0.0000 C   0  0  0  0  0  0  0  0  0  0  0  0
    0.7062    2.6807    0.0000 N   0  0  0  0  0  0  0  0  0  0  0  0
    0.3943    1.2135    0.0000 C   0  0  0  0  0  0  0  0  0  0  0  0
    1.2760    0.0000    0.0000 C   0  0  0  0  0  0  0  0  0  0  0  0
    0.3943   -1.2135    0.0000 N   0  0  0  0  0  0  0  0  0  0  0  0
   -1.0323   -0.7500    0.0000 C   0  0  0  0  0  0  0  0  0  0  0  0
   -1.0323    0.7500    0.0000 C   0  0  0  0  0  0  0  0  0  0  0  0
   -2.1470    1.7537    0.0000 C   0  0  0  0  0  0  0  0  0  0  0  0
   -3.5736    1.2902    0.0000 C   0  0  0  0  0  0  0  0  0  0  0  0
   -4.6883    2.2939    0.0000 C   0  0  0  0  0  0  0  0  0  0  0  0
   -4.3764    3.7611    0.0000 C   0  0  0  0  0  0  0  0  0  0  0  0
   -2.9499    4.2246    0.0000 C   0  0  0  0  0  0  0  0  0  0  0  0
   -2.6380    5.6918    0.0000 C   0  0  0  0  0  0  0  0  0  0  0  0
   -2.3261    7.1591    0.0000 F   0  0  0  0  0  0  0  0  0  0  0  0
   -4.1052    6.0037    0.0000 F   0  0  0  0  0  0  0  0  0  0  0  0
   -1.1708    5.3800    0.0000 F   0  0  0  0  0  0  0  0  0  0  0  0
   -1.8351    3.2209    0.0000 C   0  0  0  0  0  0  0  0  0  0  0  0
  2  3  2  0
  3  4  1  0
  4  5  1  0
  5  6  1  1
  6  7  1  0
  7  8  1  0
  9  8  1  6
  9 10  1  0
 10 11  2  0
 11 12  1  0
 12 13  2  0
 13 14  1  0
 14 15  1  0
 15 16  1  0
 15 17  1  0
 15 18  1  0
 14 19  2  0
 19  3  1  0
  9  5  1  0
 19 10  1  0
M  END
>  <assay_chembl_id>  (292) 
CHEMBL2339050

>  <assay_description>  (292) 
Displacement of [3H]-LSD from human recombinant 5-HT2B receptor expressed in HEK293E cells after 45 mins by scintillation counting analysis

>  <parent_molecule_chembl_id>  (292) 
CHEMBL2365083

>  <canonical_smiles>  (292) 
Cl.O=C1N[C@H]2CNC[C@@H]2c2cccc(C(F)(F)F)c21

>  <standard_type>  (292) 
Ki

>  <standard_relation>  (292) 
=

>  <standard_value>  (292) 
73.0

>  <standard_units>  (292) 
nM

>  <target_pref_name>  (292) 
Serotonin 2b (5-HT2b) receptor

>  <target_chembl_id>  (292) 
CHEMBL1833

>  <target_organism>  (292) 
Homo sapiens

>  <pchembl_median>  (292) 
6.05

$$$$
CHEMBL2337500
     RDKit          2D

 17 18  0  0  0  0  0  0  0  0999 V2000
    2.2760    0.0000    0.0000 Cl  0  0  0  0  0  0  0  0  0  0  0  0
   -0.0967    5.1517    0.0000 O   0  0  0  0  0  0  0  0  0  0  0  0
   -0.4086    3.6844    0.0000 C   0  0  0  0  0  0  0  0  0  0  0  0
    0.7062    2.6807    0.0000 N   0  0  0  0  0  0  0  0  0  0  0  0
    0.3943    1.2135    0.0000 C   0  0  0  0  0  0  0  0  0  0  0  0
    1.2760    0.0000    0.0000 C   0  0  0  0  0  0  0  0  0  0  0  0
    0.3943   -1.2135    0.0000 N   0  0  0  0  0  0  0  0  0  0  0  0
   -1.0323   -0.7500    0.0000 C   0  0  0  0  0  0  0  0  0  0  0  0
   -1.0323    0.7500    0.0000 C   0  0  0  0  0  0  0  0  0  0  0  0
   -2.1470    1.7537    0.0000 C   0  0  0  0  0  0  0  0  0  0  0  0
   -3.5736    1.2902    0.0000 C   0  0  0  0  0  0  0  0  0  0  0  0
   -4.6883    2.2939    0.0000 C   0  0  0  0  0  0  0  0  0  0  0  0
   -4.3764    3.7611    0.0000 C   0  0  0  0  0  0  0  0  0  0  0  0
   -5.4912    4.7648    0.0000 Cl  0  0  0  0  0  0  0  0  0  0  0  0
   -2.9499    4.2246    0.0000 C   0  0  0  0  0  0  0  0  0  0  0  0
   -2.6380    5.6918    0.0000 Cl  0  0  0  0  0  0  0  0  0  0  0  0
   -1.8351    3.2209    0.0000 C   0  0  0  0  0  0  0  0  0  0  0  0
  2  3  2  0
  3  4  1  0
  4  5  1  0
  5  6  1  1
  6  7  1  0
  7  8  1  0
  9  8  1  6
  9 10  1  0
 10 11  2  0
 11 12  1  0
 12 13  2  0
 13 14  1  0
 13 15  1  0
 15 16  1  0
 15 17  2  0
 17  3  1  0
  9  5  1  0
 17 10  1  0
M  END
>  <assay_chembl_id>  (293) 
CHEMBL2339050

>  <assay_description>  (293) 
Displacement of [3H]-LSD from human recombinant 5-HT2B receptor expressed in HEK293E cells after 45 mins by scintillation counting analysis

>  <parent_molecule_chembl_id>  (293) 
CHEMBL2365705

>  <canonical_smiles>  (293) 
Cl.O=C1N[C@H]2CNC[C@@H]2c2ccc(Cl)c(Cl)c21

>  <standard_type>  (293) 
Ki

>  <standard_relation>  (293) 
=

>  <standard_value>  (293) 
48.0

>  <standard_units>  (293) 
nM

>  <target_pref_name>  (293) 
Serotonin 2b (5-HT2b) receptor

>  <target_chembl_id>  (293) 
CHEMBL1833

>  <target_organism>  (293) 
Homo sapiens

>  <pchembl_median>  (293) 
5.98

$$$$
CHEMBL2337493
     RDKit          2D

 16 17  0  0  0  0  0  0  0  0999 V2000
    2.2760    0.0000    0.0000 Cl  0  0  0  0  0  0  0  0  0  0  0  0
   -0.0967    5.1517    0.0000 O   0  0  0  0  0  0  0  0  0  0  0  0
   -0.4086    3.6844    0.0000 C   0  0  0  0  0  0  0  0  0  0  0  0
    0.7062    2.6807    0.0000 N   0  0  0  0  0  0  0  0  0  0  0  0
    0.3943    1.2135    0.0000 C   0  0  0  0  0  0  0  0  0  0  0  0
    1.2760    0.0000    0.0000 C   0  0  0  0  0  0  0  0  0  0  0  0
    0.3943   -1.2135    0.0000 N   0  0  0  0  0  0  0  0  0  0  0  0
   -1.0323   -0.7500    0.0000 C   0  0  0  0  0  0  0  0  0  0  0  0
   -1.0323    0.7500    0.0000 C   0  0  0  0  0  0  0  0  0  0  0  0
   -2.1470    1.7537    0.0000 C   0  0  0  0  0  0  0  0  0  0  0  0
   -3.5736    1.2902    0.0000 C   0  0  0  0  0  0  0  0  0  0  0  0
   -4.6883    2.2939    0.0000 C   0  0  0  0  0  0  0  0  0  0  0  0
   -4.3764    3.7611    0.0000 C   0  0  0  0  0  0  0  0  0  0  0  0
   -2.9499    4.2246    0.0000 C   0  0  0  0  0  0  0  0  0  0  0  0
   -2.6380    5.6918    0.0000 Cl  0  0  0  0  0  0  0  0  0  0  0  0
   -1.8351    3.2209    0.0000 C   0  0  0  0  0  0  0  0  0  0  0  0
  2  3  2  0
  3  4  1  0
  4  5  1  0
  5  6  1  1
  6  7  1  0
  7  8  1  0
  9  8  1  6
  9 10  1  0
 10 11  2  0
 11 12  1  0
 12 13  2  0
 13 14  1  0
 14 15  1  0
 14 16  2  0
 16  3  1  0
  9  5  1  0
 16 10  1  0
M  END
>  <assay_chembl_id>  (294) 
CHEMBL2339050

>  <assay_description>  (294) 
Displacement of [3H]-LSD from human recombinant 5-HT2B receptor expressed in HEK293E cells after 45 mins by scintillation counting analysis

>  <parent_molecule_chembl_id>  (294) 
CHEMBL2365469

>  <canonical_smiles>  (294) 
Cl.O=C1N[C@H]2CNC[C@@H]2c2cccc(Cl)c21

>  <standard_type>  (294) 
Ki

>  <standard_relation>  (294) 
=

>  <standard_value>  (294) 
40.0

>  <standard_units>  (294) 
nM

>  <target_pref_name>  (294) 
Serotonin 2b (5-HT2b) receptor

>  <target_chembl_id>  (294) 
CHEMBL1833

>  <target_organism>  (294) 
Homo sapiens

>  <pchembl_median>  (294) 
6.57

$$$$
CHEMBL2337492
     RDKit          2D

 20 21  0  0  0  0  0  0  0  0999 V2000
   -3.5736    1.2902    0.0000 C   0  0  0  0  0  0  0  0  0  0  0  0
   -2.1470    1.7537    0.0000 N   0  0  0  0  0  0  0  0  0  0  0  0
   -1.8351    3.2209    0.0000 C   0  0  0  0  0  0  0  0  0  0  0  0
   -2.9499    4.2246    0.0000 O   0  0  0  0  0  0  0  0  0  0  0  0
   -0.4086    3.6844    0.0000 C   0  0  0  0  0  0  0  0  0  0  0  0
    0.7062    2.6807    0.0000 C   0  0  0  0  0  0  0  0  0  0  0  0
    2.1328    3.1443    0.0000 C   0  0  0  0  0  0  0  0  0  0  0  0
    2.4446    4.6115    0.0000 C   0  0  0  0  0  0  0  0  0  0  0  0
    1.3299    5.6152    0.0000 C   0  0  0  0  0  0  0  0  0  0  0  0
   -0.0967    5.1517    0.0000 C   0  0  0  0  0  0  0  0  0  0  0  0
   -1.2114    6.1554    0.0000 C   0  0  0  0  0  0  0  0  0  0  0  0
   -2.3261    7.1591    0.0000 F   0  0  0  0  0  0  0  0  0  0  0  0
   -0.2077    7.2701    0.0000 F   0  0  0  0  0  0  0  0  0  0  0  0
   -2.2151    5.0406    0.0000 F   0  0  0  0  0  0  0  0  0  0  0  0
    0.3943    1.2135    0.0000 C   0  0  0  0  0  0  0  0  0  0  0  0
    1.2760    0.0000    0.0000 C   0  0  0  0  0  0  0  0  0  0  0  0
    0.3943   -1.2135    0.0000 N   0  0  0  0  0  0  0  0  0  0  0  0
   -1.0323   -0.7500    0.0000 C   0  0  0  0  0  0  0  0  0  0  0  0
   -1.0323    0.7500    0.0000 C   0  0  0  0  0  0  0  0  0  0  0  0
    3.4446    0.0000    0.0000 Cl  0  0  0  0  0  0  0  0  0  0  0  0
  1  2  1  0
  2  3  1  0
  3  4  2  0
  3  5  1  0
  5  6  2  0
  6  7  1  0
  7  8  2  0
  8  9  1  0
  9 10  2  0
 10 11  1  0
 11 12  1  0
 11 13  1  0
 11 14  1  0
  6 15  1  0
 15 16  1  1
 16 17  1  0
 17 18  1  0
 19 18  1  6
 19  2  1  0
 10  5  1  0
 19 15  1  0
M  END
>  <assay_chembl_id>  (295) 
CHEMBL2339050

>  <assay_description>  (295) 
Displacement of [3H]-LSD from human recombinant 5-HT2B receptor expressed in HEK293E cells after 45 mins by scintillation counting analysis

>  <parent_molecule_chembl_id>  (295) 
CHEMBL2365703

>  <canonical_smiles>  (295) 
CN1C(=O)c2c(cccc2C(F)(F)F)[C@H]2CNC[C@@H]21.Cl

>  <standard_type>  (295) 
Ki

>  <standard_relation>  (295) 
=

>  <standard_value>  (295) 
24.0

>  <standard_units>  (295) 
nM

>  <target_pref_name>  (295) 
Serotonin 2b (5-HT2b) receptor

>  <target_chembl_id>  (295) 
CHEMBL1833

>  <target_organism>  (295) 
Homo sapiens

>  <pchembl_median>  (295) 
6.28

$$$$
CHEMBL2337494
     RDKit          2D

 16 17  0  0  0  0  0  0  0  0999 V2000
   -2.6380    5.6918    0.0000 C   0  0  0  0  0  0  0  0  0  0  0  0
   -2.9499    4.2246    0.0000 C   0  0  0  0  0  0  0  0  0  0  0  0
   -4.3764    3.7611    0.0000 C   0  0  0  0  0  0  0  0  0  0  0  0
   -4.6883    2.2939    0.0000 C   0  0  0  0  0  0  0  0  0  0  0  0
   -3.5736    1.2902    0.0000 C   0  0  0  0  0  0  0  0  0  0  0  0
   -2.1470    1.7537    0.0000 C   0  0  0  0  0  0  0  0  0  0  0  0
   -1.8351    3.2209    0.0000 C   0  0  0  0  0  0  0  0  0  0  0  0
   -0.4086    3.6844    0.0000 C   0  0  0  0  0  0  0  0  0  0  0  0
   -0.0967    5.1517    0.0000 O   0  0  0  0  0  0  0  0  0  0  0  0
    0.7062    2.6807    0.0000 N   0  0  0  0  0  0  0  0  0  0  0  0
    0.3943    1.2135    0.0000 C   0  0  0  0  0  0  0  0  0  0  0  0
    1.2760    0.0000    0.0000 C   0  0  0  0  0  0  0  0  0  0  0  0
    0.3943   -1.2135    0.0000 N   0  0  0  0  0  0  0  0  0  0  0  0
   -1.0323   -0.7500    0.0000 C   0  0  0  0  0  0  0  0  0  0  0  0
   -1.0323    0.7500    0.0000 C   0  0  0  0  0  0  0  0  0  0  0  0
    2.2760    0.0000    0.0000 Cl  0  0  0  0  0  0  0  0  0  0  0  0
  1  2  1  0
  2  3  2  0
  3  4  1  0
  4  5  2  0
  5  6  1  0
  6  7  2  0
  7  8  1  0
  8  9  2  0
  8 10  1  0
 10 11  1  0
 11 12  1  1
 12 13  1  0
 13 14  1  0
 15 14  1  6
  7  2  1  0
 15 11  1  0
 15  6  1  0
M  END
>  <assay_chembl_id>  (296) 
CHEMBL2339050

>  <assay_description>  (296) 
Displacement of [3H]-LSD from human recombinant 5-HT2B receptor expressed in HEK293E cells after 45 mins by scintillation counting analysis

>  <parent_molecule_chembl_id>  (296) 
CHEMBL2365470

>  <canonical_smiles>  (296) 
Cc1cccc2c1C(=O)N[C@H]1CNC[C@H]21.Cl

>  <standard_type>  (296) 
Ki

>  <standard_relation>  (296) 
=

>  <standard_value>  (296) 
23.0

>  <standard_units>  (296) 
nM

>  <target_pref_name>  (296) 
Serotonin 2b (5-HT2b) receptor

>  <target_chembl_id>  (296) 
CHEMBL1833

>  <target_organism>  (296) 
Homo sapiens

>  <pchembl_median>  (296) 
5.6

$$$$
CHEMBL2337501
     RDKit          2D

 17 18  0  0  0  0  0  0  0  0999 V2000
   -5.4912    4.7648    0.0000 C   0  0  0  0  0  0  0  0  0  0  0  0
   -4.3764    3.7611    0.0000 C   0  0  0  0  0  0  0  0  0  0  0  0
   -4.6883    2.2939    0.0000 C   0  0  0  0  0  0  0  0  0  0  0  0
   -3.5736    1.2902    0.0000 C   0  0  0  0  0  0  0  0  0  0  0  0
   -2.1470    1.7537    0.0000 C   0  0  0  0  0  0  0  0  0  0  0  0
   -1.8351    3.2209    0.0000 C   0  0  0  0  0  0  0  0  0  0  0  0
   -2.9499    4.2246    0.0000 C   0  0  0  0  0  0  0  0  0  0  0  0
   -2.6380    5.6918    0.0000 Cl  0  0  0  0  0  0  0  0  0  0  0  0
   -0.4086    3.6844    0.0000 C   0  0  0  0  0  0  0  0  0  0  0  0
   -0.0967    5.1517    0.0000 O   0  0  0  0  0  0  0  0  0  0  0  0
    0.7062    2.6807    0.0000 N   0  0  0  0  0  0  0  0  0  0  0  0
    0.3943    1.2135    0.0000 C   0  0  0  0  0  0  0  0  0  0  0  0
    1.2760    0.0000    0.0000 C   0  0  0  0  0  0  0  0  0  0  0  0
    0.3943   -1.2135    0.0000 N   0  0  0  0  0  0  0  0  0  0  0  0
   -1.0323   -0.7500    0.0000 C   0  0  0  0  0  0  0  0  0  0  0  0
   -1.0323    0.7500    0.0000 C   0  0  0  0  0  0  0  0  0  0  0  0
    2.2760    0.0000    0.0000 Cl  0  0  0  0  0  0  0  0  0  0  0  0
  1  2  1  0
  2  3  2  0
  3  4  1  0
  4  5  2  0
  5  6  1  0
  6  7  2  0
  7  8  1  0
  6  9  1  0
  9 10  2  0
  9 11  1  0
 11 12  1  0
 12 13  1  1
 13 14  1  0
 14 15  1  0
 16 15  1  6
  7  2  1  0
 16 12  1  0
 16  5  1  0
M  END
>  <assay_chembl_id>  (297) 
CHEMBL2339050

>  <assay_description>  (297) 
Displacement of [3H]-LSD from human recombinant 5-HT2B receptor expressed in HEK293E cells after 45 mins by scintillation counting analysis

>  <parent_molecule_chembl_id>  (297) 
CHEMBL2365359

>  <canonical_smiles>  (297) 
Cc1ccc2c(c1Cl)C(=O)N[C@H]1CNC[C@H]21.Cl

>  <standard_type>  (297) 
Ki

>  <standard_relation>  (297) 
=

>  <standard_value>  (297) 
4.0

>  <standard_units>  (297) 
nM

>  <target_pref_name>  (297) 
Serotonin 2b (5-HT2b) receptor

>  <target_chembl_id>  (297) 
CHEMBL1833

>  <target_organism>  (297) 
Homo sapiens

>  <pchembl_median>  (297) 
8.57

$$$$
CHEMBL2391541
     RDKit          2D

 20 21  0  0  0  0  0  0  0  0999 V2000
   -6.4289   -8.5179    0.0000 C   0  0  0  0  0  0  0  0  0  0  0  0
   -6.1170   -7.0506    0.0000 C   0  0  0  0  0  0  0  0  0  0  0  0
   -4.6904   -6.5871    0.0000 C   0  0  0  0  0  0  0  0  0  0  0  0
   -4.3786   -5.1199    0.0000 N   0  0  0  0  0  0  0  0  0  0  0  0
   -5.4933   -4.1162    0.0000 C   0  0  0  0  0  0  0  0  0  0  0  0
   -6.9199   -4.5797    0.0000 C   0  0  0  0  0  0  0  0  0  0  0  0
   -8.0346   -3.5760    0.0000 C   0  0  0  0  0  0  0  0  0  0  0  0
   -2.9520   -4.6564    0.0000 C   0  0  0  0  0  0  0  0  0  0  0  0
   -2.6401   -3.1891    0.0000 C   0  0  0  0  0  0  0  0  0  0  0  0
   -1.2135   -2.7256    0.0000 C   0  0  0  0  0  0  0  0  0  0  0  0
   -0.0000   -3.6073    0.0000 C   0  0  0  0  0  0  0  0  0  0  0  0
    1.2135   -2.7256    0.0000 N   0  0  0  0  0  0  0  0  0  0  0  0
    0.7500   -1.2990    0.0000 C   0  0  0  0  0  0  0  0  0  0  0  0
    1.5000    0.0000    0.0000 C   0  0  0  0  0  0  0  0  0  0  0  0
    0.7500    1.2990    0.0000 C   0  0  0  0  0  0  0  0  0  0  0  0
   -0.7500    1.2990    0.0000 C   0  0  0  0  0  0  0  0  0  0  0  0
   -1.5000    2.5981    0.0000 O   0  0  0  0  0  0  0  0  0  0  0  0
   -0.7500    3.8971    0.0000 C   0  0  0  0  0  0  0  0  0  0  0  0
   -1.5000    0.0000    0.0000 C   0  0  0  0  0  0  0  0  0  0  0  0
   -0.7500   -1.2990    0.0000 C   0  0  0  0  0  0  0  0  0  0  0  0
  1  2  2  0
  2  3  1  0
  3  4  1  0
  4  5  1  0
  5  6  1  0
  6  7  2  0
  4  8  1  0
  8  9  1  0
  9 10  1  0
 10 11  2  0
 11 12  1  0
 12 13  1  0
 13 14  2  0
 14 15  1  0
 15 16  2  0
 16 17  1  0
 17 18  1  0
 16 19  1  0
 19 20  2  0
 20 10  1  0
 20 13  1  0
M  END
>  <assay_chembl_id>  (298) 
CHEMBL2393675

>  <assay_description>  (298) 
Displacement of [3H]LSD from human recombinant 5-HT2B receptor expressed in HEK293 cells after 1 to 1.5 hrs by scintillation counting analysis

>  <parent_molecule_chembl_id>  (298) 
CHEMBL2391541

>  <canonical_smiles>  (298) 
C=CCN(CC=C)CCc1c[nH]c2ccc(OC)cc12

>  <standard_type>  (298) 
Ki

>  <standard_relation>  (298) 
=

>  <standard_value>  (298) 
34.0

>  <standard_units>  (298) 
nM

>  <target_pref_name>  (298) 
Serotonin 2b (5-HT2b) receptor

>  <target_chembl_id>  (298) 
CHEMBL1833

>  <target_organism>  (298) 
Homo sapiens

>  <pchembl_median>  (298) 
6.62

$$$$
CHEMBL51
     RDKit          2D

 29 32  0  0  0  0  0  0  0  0999 V2000
   -5.2500  -11.6913    0.0000 O   0  0  0  0  0  0  0  0  0  0  0  0
   -6.0000  -10.3923    0.0000 C   0  0  0  0  0  0  0  0  0  0  0  0
   -7.5000  -10.3923    0.0000 C   0  0  0  0  0  0  0  0  0  0  0  0
   -8.2500   -9.0933    0.0000 C   0  0  0  0  0  0  0  0  0  0  0  0
   -9.7500   -9.0933    0.0000 C   0  0  0  0  0  0  0  0  0  0  0  0
  -10.5000  -10.3923    0.0000 C   0  0  0  0  0  0  0  0  0  0  0  0
  -12.0000  -10.3923    0.0000 F   0  0  0  0  0  0  0  0  0  0  0  0
   -9.7500  -11.6913    0.0000 C   0  0  0  0  0  0  0  0  0  0  0  0
   -8.2500  -11.6913    0.0000 C   0  0  0  0  0  0  0  0  0  0  0  0
   -5.2500   -9.0933    0.0000 C   0  0  0  0  0  0  0  0  0  0  0  0
   -3.7500   -9.0933    0.0000 C   0  0  0  0  0  0  0  0  0  0  0  0
   -3.0000   -7.7942    0.0000 C   0  0  0  0  0  0  0  0  0  0  0  0
   -3.7500   -6.4952    0.0000 N   0  0  0  0  0  0  0  0  0  0  0  0
   -3.0000   -5.1962    0.0000 C   0  0  0  0  0  0  0  0  0  0  0  0
   -1.5000   -5.1962    0.0000 C   0  0  0  0  0  0  0  0  0  0  0  0
   -0.7500   -3.8971    0.0000 N   0  0  0  0  0  0  0  0  0  0  0  0
    0.7500   -3.8971    0.0000 C   0  0  0  0  0  0  0  0  0  0  0  0
    1.5000   -5.1962    0.0000 O   0  0  0  0  0  0  0  0  0  0  0  0
    1.5000   -2.5981    0.0000 N   0  0  0  0  0  0  0  0  0  0  0  0
    0.7500   -1.2990    0.0000 C   0  0  0  0  0  0  0  0  0  0  0  0
    1.5000    0.0000    0.0000 C   0  0  0  0  0  0  0  0  0  0  0  0
    0.7500    1.2990    0.0000 C   0  0  0  0  0  0  0  0  0  0  0  0
   -0.7500    1.2990    0.0000 C   0  0  0  0  0  0  0  0  0  0  0  0
   -1.5000    0.0000    0.0000 C   0  0  0  0  0  0  0  0  0  0  0  0
   -0.7500   -1.2990    0.0000 C   0  0  0  0  0  0  0  0  0  0  0  0
   -1.5000   -2.5981    0.0000 C   0  0  0  0  0  0  0  0  0  0  0  0
   -3.0000   -2.5981    0.0000 O   0  0  0  0  0  0  0  0  0  0  0  0
   -5.2500   -6.4952    0.0000 C   0  0  0  0  0  0  0  0  0  0  0  0
   -6.0000   -7.7942    0.0000 C   0  0  0  0  0  0  0  0  0  0  0  0
  1  2  2  0
  2  3  1  0
  3  4  2  0
  4  5  1  0
  5  6  2  0
  6  7  1  0
  6  8  1  0
  8  9  2  0
  2 10  1  0
 10 11  1  0
 11 12  1  0
 12 13  1  0
 13 14  1  0
 14 15  1  0
 15 16  1  0
 16 17  1  0
 17 18  2  0
 17 19  1  0
 19 20  1  0
 20 21  2  0
 21 22  1  0
 22 23  2  0
 23 24  1  0
 24 25  2  0
 25 26  1  0
 26 27  2  0
 13 28  1  0
 28 29  1  0
  9  3  1  0
 29 10  1  0
 26 16  1  0
 25 20  1  0
M  END
>  <assay_chembl_id>  (299) 
CHEMBL2395078

>  <assay_description>  (299) 
Displacement of [3H]Lysergic acid from human recombinant 5HT2B receptor expressed in CHOK1 cells after 60 mins

>  <parent_molecule_chembl_id>  (299) 
CHEMBL51

>  <canonical_smiles>  (299) 
O=C(c1ccc(F)cc1)C1CCN(CCn2c(=O)[nH]c3ccccc3c2=O)CC1

>  <standard_type>  (299) 
Ki

>  <standard_relation>  (299) 
=

>  <standard_value>  (299) 
180.0

>  <standard_units>  (299) 
nM

>  <target_pref_name>  (299) 
Serotonin 2b (5-HT2b) receptor

>  <target_chembl_id>  (299) 
CHEMBL1833

>  <target_organism>  (299) 
Homo sapiens

>  <pchembl_median>  (299) 
8.82

$$$$
CHEMBL2397914
     RDKit          2D

 19 22  0  0  0  0  0  0  0  0999 V2000
    0.7500   -6.4952    0.0000 O   0  0  0  0  0  0  0  0  0  0  0  0
    1.5000   -5.1962    0.0000 C   0  0  0  0  0  0  0  0  0  0  0  0
    0.7500   -3.8971    0.0000 C   0  0  0  0  0  0  0  0  0  0  0  0
   -0.7500   -3.8971    0.0000 C   0  0  0  0  0  0  0  0  0  0  0  0
   -1.5000   -2.5981    0.0000 C   0  0  0  0  0  0  0  0  0  0  0  0
   -0.7500   -1.2990    0.0000 C   0  0  0  0  0  0  0  0  0  0  0  0
    0.7500   -1.2990    0.0000 C   0  0  0  0  0  0  0  0  0  0  0  0
    1.5000   -2.5981    0.0000 C   0  0  0  0  0  0  0  0  0  0  0  0
    3.0000   -2.5981    0.0000 C   0  0  0  0  0  0  0  0  0  0  0  0
    3.7500   -3.8971    0.0000 C   0  0  0  0  0  0  0  0  0  0  0  0
    5.2500   -3.8971    0.0000 C   0  0  0  0  0  0  0  0  0  0  0  0
    6.0000   -5.1962    0.0000 N   0  0  0  0  0  0  0  0  0  0  0  0
    5.2500   -6.4952    0.0000 C   0  0  0  0  0  0  0  0  0  0  0  0
    3.7500   -6.4952    0.0000 C   0  0  0  0  0  0  0  0  0  0  0  0
    3.0000   -5.1962    0.0000 N   0  0  0  0  0  0  0  0  0  0  0  0
    1.5000    0.0000    0.0000 O   0  0  0  0  0  0  0  0  0  0  0  0
    0.7500    1.2990    0.0000 C   0  0  0  0  0  0  0  0  0  0  0  0
   -0.7500    1.2990    0.0000 C   0  0  0  0  0  0  0  0  0  0  0  0
   -1.5000    0.0000    0.0000 C   0  0  0  0  0  0  0  0  0  0  0  0
  1  2  2  0
  2  3  1  0
  3  4  2  0
  4  5  1  0
  5  6  2  0
  6  7  1  0
  7  8  2  0
  8  9  1  0
 10  9  1  6
 10 11  1  0
 11 12  1  0
 12 13  1  0
 13 14  1  0
 14 15  1  0
  7 16  1  0
 16 17  1  0
 17 18  1  0
 18 19  1  0
 15  2  1  0
  8  3  1  0
 15 10  1  0
 19  6  1  0
M  END
>  <assay_chembl_id>  (300) 
CHEMBL2400231

>  <assay_description>  (300) 
Displacement of [125I]LSD from human recombinant 5-HT2B receptor expressed in HEK293E cells after 45 mins by Top counting analysis

>  <parent_molecule_chembl_id>  (300) 
CHEMBL2397914

>  <canonical_smiles>  (300) 
O=C1c2ccc3c(c2C[C@@H]2CNCCN12)OCCC3

>  <standard_type>  (300) 
Ki

>  <standard_relation>  (300) 
=

>  <standard_value>  (300) 
21.0

>  <standard_units>  (300) 
nM

>  <target_pref_name>  (300) 
Serotonin 2b (5-HT2b) receptor

>  <target_chembl_id>  (300) 
CHEMBL1833

>  <target_organism>  (300) 
Homo sapiens

>  <pchembl_median>  (300) 
9.04

$$$$
CHEMBL2397913
     RDKit          2D

 18 20  0  0  0  0  0  0  0  0999 V2000
    3.7500   -6.4952    0.0000 C   0  0  0  0  0  0  0  0  0  0  0  0
    3.0000   -5.1962    0.0000 O   0  0  0  0  0  0  0  0  0  0  0  0
    1.5000   -5.1962    0.0000 C   0  0  0  0  0  0  0  0  0  0  0  0
    0.7500   -6.4952    0.0000 C   0  0  0  0  0  0  0  0  0  0  0  0
    1.5000   -7.7942    0.0000 C   0  0  0  0  0  0  0  0  0  0  0  0
   -0.7500   -6.4952    0.0000 C   0  0  0  0  0  0  0  0  0  0  0  0
   -1.5000   -5.1962    0.0000 C   0  0  0  0  0  0  0  0  0  0  0  0
   -0.7500   -3.8971    0.0000 C   0  0  0  0  0  0  0  0  0  0  0  0
    0.7500   -3.8971    0.0000 C   0  0  0  0  0  0  0  0  0  0  0  0
    1.5000   -2.5981    0.0000 C   0  0  0  0  0  0  0  0  0  0  0  0
    0.7500   -1.2990    0.0000 C   0  0  0  0  0  0  0  0  0  0  0  0
    1.5000    0.0000    0.0000 C   0  0  0  0  0  0  0  0  0  0  0  0
    0.7500    1.2990    0.0000 N   0  0  0  0  0  0  0  0  0  0  0  0
   -0.7500    1.2990    0.0000 C   0  0  0  0  0  0  0  0  0  0  0  0
   -1.5000    0.0000    0.0000 C   0  0  0  0  0  0  0  0  0  0  0  0
   -0.7500   -1.2990    0.0000 N   0  0  0  0  0  0  0  0  0  0  0  0
   -1.5000   -2.5981    0.0000 C   0  0  0  0  0  0  0  0  0  0  0  0
   -3.0000   -2.5981    0.0000 O   0  0  0  0  0  0  0  0  0  0  0  0
  1  2  1  0
  2  3  1  0
  3  4  2  0
  4  5  1  0
  4  6  1  0
  6  7  2  0
  7  8  1  0
  8  9  2  0
  9 10  1  0
 11 10  1  1
 11 12  1  0
 12 13  1  0
 13 14  1  0
 14 15  1  0
 15 16  1  0
 16 17  1  0
 17 18  2  0
  9  3  1  0
 16 11  1  0
 17  8  1  0
M  END
>  <assay_chembl_id>  (301) 
CHEMBL2400231

>  <assay_description>  (301) 
Displacement of [125I]LSD from human recombinant 5-HT2B receptor expressed in HEK293E cells after 45 mins by Top counting analysis

>  <parent_molecule_chembl_id>  (301) 
CHEMBL2397913

>  <canonical_smiles>  (301) 
COc1c(C)ccc2c1C[C@@H]1CNCCN1C2=O

>  <standard_type>  (301) 
Ki

>  <standard_relation>  (301) 
=

>  <standard_value>  (301) 
217.0

>  <standard_units>  (301) 
nM

>  <target_pref_name>  (301) 
Serotonin 2b (5-HT2b) receptor

>  <target_chembl_id>  (301) 
CHEMBL1833

>  <target_organism>  (301) 
Homo sapiens

>  <pchembl_median>  (301) 
7.47

$$$$
CHEMBL2397912
     RDKit          2D

 18 20  0  0  0  0  0  0  0  0999 V2000
    3.7500   -6.4952    0.0000 C   0  0  0  0  0  0  0  0  0  0  0  0
    3.0000   -5.1962    0.0000 O   0  0  0  0  0  0  0  0  0  0  0  0
    1.5000   -5.1962    0.0000 C   0  0  0  0  0  0  0  0  0  0  0  0
    0.7500   -6.4952    0.0000 C   0  0  0  0  0  0  0  0  0  0  0  0
   -0.7500   -6.4952    0.0000 C   0  0  0  0  0  0  0  0  0  0  0  0
   -1.5000   -5.1962    0.0000 C   0  0  0  0  0  0  0  0  0  0  0  0
   -3.0000   -5.1962    0.0000 C   0  0  0  0  0  0  0  0  0  0  0  0
   -0.7500   -3.8971    0.0000 C   0  0  0  0  0  0  0  0  0  0  0  0
    0.7500   -3.8971    0.0000 C   0  0  0  0  0  0  0  0  0  0  0  0
    1.5000   -2.5981    0.0000 C   0  0  0  0  0  0  0  0  0  0  0  0
    0.7500   -1.2990    0.0000 C   0  0  0  0  0  0  0  0  0  0  0  0
    1.5000    0.0000    0.0000 C   0  0  0  0  0  0  0  0  0  0  0  0
    0.7500    1.2990    0.0000 N   0  0  0  0  0  0  0  0  0  0  0  0
   -0.7500    1.2990    0.0000 C   0  0  0  0  0  0  0  0  0  0  0  0
   -1.5000    0.0000    0.0000 C   0  0  0  0  0  0  0  0  0  0  0  0
   -0.7500   -1.2990    0.0000 N   0  0  0  0  0  0  0  0  0  0  0  0
   -1.5000   -2.5981    0.0000 C   0  0  0  0  0  0  0  0  0  0  0  0
   -3.0000   -2.5981    0.0000 O   0  0  0  0  0  0  0  0  0  0  0  0
  1  2  1  0
  2  3  1  0
  3  4  2  0
  4  5  1  0
  5  6  2  0
  6  7  1  0
  6  8  1  0
  8  9  2  0
  9 10  1  0
 11 10  1  1
 11 12  1  0
 12 13  1  0
 13 14  1  0
 14 15  1  0
 15 16  1  0
 16 17  1  0
 17 18  2  0
  9  3  1  0
 16 11  1  0
 17  8  1  0
M  END
>  <assay_chembl_id>  (302) 
CHEMBL2400231

>  <assay_description>  (302) 
Displacement of [125I]LSD from human recombinant 5-HT2B receptor expressed in HEK293E cells after 45 mins by Top counting analysis

>  <parent_molecule_chembl_id>  (302) 
CHEMBL2397912

>  <canonical_smiles>  (302) 
COc1ccc(C)c2c1C[C@@H]1CNCCN1C2=O

>  <standard_type>  (302) 
Ki

>  <standard_relation>  (302) 
=

>  <standard_value>  (302) 
17.0

>  <standard_units>  (302) 
nM

>  <target_pref_name>  (302) 
Serotonin 2b (5-HT2b) receptor

>  <target_chembl_id>  (302) 
CHEMBL1833

>  <target_organism>  (302) 
Homo sapiens

>  <pchembl_median>  (302) 
9.15

$$$$
CHEMBL2397911
     RDKit          2D

 18 20  0  0  0  0  0  0  0  0999 V2000
    0.7500   -9.0933    0.0000 C   0  0  0  0  0  0  0  0  0  0  0  0
    1.5000   -7.7942    0.0000 C   0  0  0  0  0  0  0  0  0  0  0  0
    0.7500   -6.4952    0.0000 C   0  0  0  0  0  0  0  0  0  0  0  0
   -0.7500   -6.4952    0.0000 C   0  0  0  0  0  0  0  0  0  0  0  0
   -1.5000   -5.1962    0.0000 C   0  0  0  0  0  0  0  0  0  0  0  0
   -3.0000   -5.1962    0.0000 C   0  0  0  0  0  0  0  0  0  0  0  0
   -0.7500   -3.8971    0.0000 C   0  0  0  0  0  0  0  0  0  0  0  0
    0.7500   -3.8971    0.0000 C   0  0  0  0  0  0  0  0  0  0  0  0
    1.5000   -5.1962    0.0000 C   0  0  0  0  0  0  0  0  0  0  0  0
    1.5000   -2.5981    0.0000 C   0  0  0  0  0  0  0  0  0  0  0  0
    0.7500   -1.2990    0.0000 C   0  0  0  0  0  0  0  0  0  0  0  0
    1.5000    0.0000    0.0000 C   0  0  0  0  0  0  0  0  0  0  0  0
    0.7500    1.2990    0.0000 N   0  0  0  0  0  0  0  0  0  0  0  0
   -0.7500    1.2990    0.0000 C   0  0  0  0  0  0  0  0  0  0  0  0
   -1.5000    0.0000    0.0000 C   0  0  0  0  0  0  0  0  0  0  0  0
   -0.7500   -1.2990    0.0000 N   0  0  0  0  0  0  0  0  0  0  0  0
   -1.5000   -2.5981    0.0000 C   0  0  0  0  0  0  0  0  0  0  0  0
   -3.0000   -2.5981    0.0000 O   0  0  0  0  0  0  0  0  0  0  0  0
  1  2  1  0
  2  3  1  0
  3  4  2  0
  4  5  1  0
  5  6  1  0
  5  7  2  0
  7  8  1  0
  8  9  2  0
  8 10  1  0
 11 10  1  1
 11 12  1  0
 12 13  1  0
 13 14  1  0
 14 15  1  0
 15 16  1  0
 16 17  1  0
 17 18  2  0
  9  3  1  0
 16 11  1  0
 17  7  1  0
M  END
>  <assay_chembl_id>  (303) 
CHEMBL2400231

>  <assay_description>  (303) 
Displacement of [125I]LSD from human recombinant 5-HT2B receptor expressed in HEK293E cells after 45 mins by Top counting analysis

>  <parent_molecule_chembl_id>  (303) 
CHEMBL2397911

>  <canonical_smiles>  (303) 
CCc1cc(C)c2c(c1)C[C@@H]1CNCCN1C2=O

>  <standard_type>  (303) 
Ki

>  <standard_relation>  (303) 
=

>  <standard_value>  (303) 
40.0

>  <standard_units>  (303) 
nM

>  <target_pref_name>  (303) 
Serotonin 2b (5-HT2b) receptor

>  <target_chembl_id>  (303) 
CHEMBL1833

>  <target_organism>  (303) 
Homo sapiens

>  <pchembl_median>  (303) 
8.96

$$$$
CHEMBL2397910
     RDKit          2D

 17 19  0  0  0  0  0  0  0  0999 V2000
    1.5000   -7.7942    0.0000 C   0  0  0  0  0  0  0  0  0  0  0  0
    0.7500   -6.4952    0.0000 C   0  0  0  0  0  0  0  0  0  0  0  0
   -0.7500   -6.4952    0.0000 C   0  0  0  0  0  0  0  0  0  0  0  0
   -1.5000   -5.1962    0.0000 C   0  0  0  0  0  0  0  0  0  0  0  0
   -3.0000   -5.1962    0.0000 C   0  0  0  0  0  0  0  0  0  0  0  0
   -0.7500   -3.8971    0.0000 C   0  0  0  0  0  0  0  0  0  0  0  0
    0.7500   -3.8971    0.0000 C   0  0  0  0  0  0  0  0  0  0  0  0
    1.5000   -5.1962    0.0000 C   0  0  0  0  0  0  0  0  0  0  0  0
    1.5000   -2.5981    0.0000 C   0  0  0  0  0  0  0  0  0  0  0  0
    0.7500   -1.2990    0.0000 C   0  0  0  0  0  0  0  0  0  0  0  0
    1.5000    0.0000    0.0000 C   0  0  0  0  0  0  0  0  0  0  0  0
    0.7500    1.2990    0.0000 N   0  0  0  0  0  0  0  0  0  0  0  0
   -0.7500    1.2990    0.0000 C   0  0  0  0  0  0  0  0  0  0  0  0
   -1.5000    0.0000    0.0000 C   0  0  0  0  0  0  0  0  0  0  0  0
   -0.7500   -1.2990    0.0000 N   0  0  0  0  0  0  0  0  0  0  0  0
   -1.5000   -2.5981    0.0000 C   0  0  0  0  0  0  0  0  0  0  0  0
   -3.0000   -2.5981    0.0000 O   0  0  0  0  0  0  0  0  0  0  0  0
  1  2  1  0
  2  3  2  0
  3  4  1  0
  4  5  1  0
  4  6  2  0
  6  7  1  0
  7  8  2  0
  7  9  1  0
 10  9  1  1
 10 11  1  0
 11 12  1  0
 12 13  1  0
 13 14  1  0
 14 15  1  0
 15 16  1  0
 16 17  2  0
  8  2  1  0
 15 10  1  0
 16  6  1  0
M  END
>  <assay_chembl_id>  (304) 
CHEMBL2400231

>  <assay_description>  (304) 
Displacement of [125I]LSD from human recombinant 5-HT2B receptor expressed in HEK293E cells after 45 mins by Top counting analysis

>  <parent_molecule_chembl_id>  (304) 
CHEMBL2397910

>  <canonical_smiles>  (304) 
Cc1cc(C)c2c(c1)C[C@@H]1CNCCN1C2=O

>  <standard_type>  (304) 
Ki

>  <standard_relation>  (304) 
=

>  <standard_value>  (304) 
21.0

>  <standard_units>  (304) 
nM

>  <target_pref_name>  (304) 
Serotonin 2b (5-HT2b) receptor

>  <target_chembl_id>  (304) 
CHEMBL1833

>  <target_organism>  (304) 
Homo sapiens

>  <pchembl_median>  (304) 
8.77

$$$$
CHEMBL2397909
     RDKit          2D

 19 21  0  0  0  0  0  0  0  0999 V2000
    6.0000   -7.7942    0.0000 C   0  0  0  0  0  0  0  0  0  0  0  0
    5.2500   -6.4952    0.0000 C   0  0  0  0  0  0  0  0  0  0  0  0
    3.7500   -6.4952    0.0000 C   0  0  0  0  0  0  0  0  0  0  0  0
    3.0000   -5.1962    0.0000 O   0  0  0  0  0  0  0  0  0  0  0  0
    1.5000   -5.1962    0.0000 C   0  0  0  0  0  0  0  0  0  0  0  0
    0.7500   -6.4952    0.0000 C   0  0  0  0  0  0  0  0  0  0  0  0
   -0.7500   -6.4952    0.0000 C   0  0  0  0  0  0  0  0  0  0  0  0
   -1.5000   -5.1962    0.0000 C   0  0  0  0  0  0  0  0  0  0  0  0
   -0.7500   -3.8971    0.0000 C   0  0  0  0  0  0  0  0  0  0  0  0
    0.7500   -3.8971    0.0000 C   0  0  0  0  0  0  0  0  0  0  0  0
    1.5000   -2.5981    0.0000 C   0  0  0  0  0  0  0  0  0  0  0  0
    0.7500   -1.2990    0.0000 C   0  0  0  0  0  0  0  0  0  0  0  0
    1.5000    0.0000    0.0000 C   0  0  0  0  0  0  0  0  0  0  0  0
    0.7500    1.2990    0.0000 N   0  0  0  0  0  0  0  0  0  0  0  0
   -0.7500    1.2990    0.0000 C   0  0  0  0  0  0  0  0  0  0  0  0
   -1.5000    0.0000    0.0000 C   0  0  0  0  0  0  0  0  0  0  0  0
   -0.7500   -1.2990    0.0000 N   0  0  0  0  0  0  0  0  0  0  0  0
   -1.5000   -2.5981    0.0000 C   0  0  0  0  0  0  0  0  0  0  0  0
   -3.0000   -2.5981    0.0000 O   0  0  0  0  0  0  0  0  0  0  0  0
  1  2  1  0
  2  3  1  0
  3  4  1  0
  4  5  1  0
  5  6  2  0
  6  7  1  0
  7  8  2  0
  8  9  1  0
  9 10  2  0
 10 11  1  0
 12 11  1  1
 12 13  1  0
 13 14  1  0
 14 15  1  0
 15 16  1  0
 16 17  1  0
 17 18  1  0
 18 19  2  0
 10  5  1  0
 17 12  1  0
 18  9  1  0
M  END
>  <assay_chembl_id>  (305) 
CHEMBL2400231

>  <assay_description>  (305) 
Displacement of [125I]LSD from human recombinant 5-HT2B receptor expressed in HEK293E cells after 45 mins by Top counting analysis

>  <parent_molecule_chembl_id>  (305) 
CHEMBL2397909

>  <canonical_smiles>  (305) 
CCCOc1cccc2c1C[C@@H]1CNCCN1C2=O

>  <standard_type>  (305) 
Ki

>  <standard_relation>  (305) 
=

>  <standard_value>  (305) 
129.0

>  <standard_units>  (305) 
nM

>  <target_pref_name>  (305) 
Serotonin 2b (5-HT2b) receptor

>  <target_chembl_id>  (305) 
CHEMBL1833

>  <target_organism>  (305) 
Homo sapiens

>  <pchembl_median>  (305) 
9.09

$$$$
CHEMBL2397908
     RDKit          2D

 18 20  0  0  0  0  0  0  0  0999 V2000
    5.2500   -6.4952    0.0000 C   0  0  0  0  0  0  0  0  0  0  0  0
    3.7500   -6.4952    0.0000 C   0  0  0  0  0  0  0  0  0  0  0  0
    3.0000   -5.1962    0.0000 O   0  0  0  0  0  0  0  0  0  0  0  0
    1.5000   -5.1962    0.0000 C   0  0  0  0  0  0  0  0  0  0  0  0
    0.7500   -6.4952    0.0000 C   0  0  0  0  0  0  0  0  0  0  0  0
   -0.7500   -6.4952    0.0000 C   0  0  0  0  0  0  0  0  0  0  0  0
   -1.5000   -5.1962    0.0000 C   0  0  0  0  0  0  0  0  0  0  0  0
   -0.7500   -3.8971    0.0000 C   0  0  0  0  0  0  0  0  0  0  0  0
    0.7500   -3.8971    0.0000 C   0  0  0  0  0  0  0  0  0  0  0  0
    1.5000   -2.5981    0.0000 C   0  0  0  0  0  0  0  0  0  0  0  0
    0.7500   -1.2990    0.0000 C   0  0  0  0  0  0  0  0  0  0  0  0
    1.5000    0.0000    0.0000 C   0  0  0  0  0  0  0  0  0  0  0  0
    0.7500    1.2990    0.0000 N   0  0  0  0  0  0  0  0  0  0  0  0
   -0.7500    1.2990    0.0000 C   0  0  0  0  0  0  0  0  0  0  0  0
   -1.5000    0.0000    0.0000 C   0  0  0  0  0  0  0  0  0  0  0  0
   -0.7500   -1.2990    0.0000 N   0  0  0  0  0  0  0  0  0  0  0  0
   -1.5000   -2.5981    0.0000 C   0  0  0  0  0  0  0  0  0  0  0  0
   -3.0000   -2.5981    0.0000 O   0  0  0  0  0  0  0  0  0  0  0  0
  1  2  1  0
  2  3  1  0
  3  4  1  0
  4  5  2  0
  5  6  1  0
  6  7  2  0
  7  8  1  0
  8  9  2  0
  9 10  1  0
 11 10  1  1
 11 12  1  0
 12 13  1  0
 13 14  1  0
 14 15  1  0
 15 16  1  0
 16 17  1  0
 17 18  2  0
  9  4  1  0
 16 11  1  0
 17  8  1  0
M  END
>  <assay_chembl_id>  (306) 
CHEMBL2400231

>  <assay_description>  (306) 
Displacement of [125I]LSD from human recombinant 5-HT2B receptor expressed in HEK293E cells after 45 mins by Top counting analysis

>  <parent_molecule_chembl_id>  (306) 
CHEMBL2397908

>  <canonical_smiles>  (306) 
CCOc1cccc2c1C[C@@H]1CNCCN1C2=O

>  <standard_type>  (306) 
Ki

>  <standard_relation>  (306) 
=

>  <standard_value>  (306) 
63.0

>  <standard_units>  (306) 
nM

>  <target_pref_name>  (306) 
Serotonin 2b (5-HT2b) receptor

>  <target_chembl_id>  (306) 
CHEMBL1833

>  <target_organism>  (306) 
Homo sapiens

>  <pchembl_median>  (306) 
7.96

$$$$
CHEMBL2397907
     RDKit          2D

 17 19  0  0  0  0  0  0  0  0999 V2000
    3.7500   -6.4952    0.0000 C   0  0  0  0  0  0  0  0  0  0  0  0
    3.0000   -5.1962    0.0000 O   0  0  0  0  0  0  0  0  0  0  0  0
    1.5000   -5.1962    0.0000 C   0  0  0  0  0  0  0  0  0  0  0  0
    0.7500   -6.4952    0.0000 C   0  0  0  0  0  0  0  0  0  0  0  0
   -0.7500   -6.4952    0.0000 C   0  0  0  0  0  0  0  0  0  0  0  0
   -1.5000   -5.1962    0.0000 C   0  0  0  0  0  0  0  0  0  0  0  0
   -0.7500   -3.8971    0.0000 C   0  0  0  0  0  0  0  0  0  0  0  0
    0.7500   -3.8971    0.0000 C   0  0  0  0  0  0  0  0  0  0  0  0
    1.5000   -2.5981    0.0000 C   0  0  0  0  0  0  0  0  0  0  0  0
    0.7500   -1.2990    0.0000 C   0  0  0  0  0  0  0  0  0  0  0  0
    1.5000    0.0000    0.0000 C   0  0  0  0  0  0  0  0  0  0  0  0
    0.7500    1.2990    0.0000 N   0  0  0  0  0  0  0  0  0  0  0  0
   -0.7500    1.2990    0.0000 C   0  0  0  0  0  0  0  0  0  0  0  0
   -1.5000    0.0000    0.0000 C   0  0  0  0  0  0  0  0  0  0  0  0
   -0.7500   -1.2990    0.0000 N   0  0  0  0  0  0  0  0  0  0  0  0
   -1.5000   -2.5981    0.0000 C   0  0  0  0  0  0  0  0  0  0  0  0
   -3.0000   -2.5981    0.0000 O   0  0  0  0  0  0  0  0  0  0  0  0
  1  2  1  0
  2  3  1  0
  3  4  2  0
  4  5  1  0
  5  6  2  0
  6  7  1  0
  7  8  2  0
  8  9  1  0
 10  9  1  1
 10 11  1  0
 11 12  1  0
 12 13  1  0
 13 14  1  0
 14 15  1  0
 15 16  1  0
 16 17  2  0
  8  3  1  0
 15 10  1  0
 16  7  1  0
M  END
>  <assay_chembl_id>  (307) 
CHEMBL2400231

>  <assay_description>  (307) 
Displacement of [125I]LSD from human recombinant 5-HT2B receptor expressed in HEK293E cells after 45 mins by Top counting analysis

>  <parent_molecule_chembl_id>  (307) 
CHEMBL2397907

>  <canonical_smiles>  (307) 
COc1cccc2c1C[C@@H]1CNCCN1C2=O

>  <standard_type>  (307) 
Ki

>  <standard_relation>  (307) 
=

>  <standard_value>  (307) 
78.0

>  <standard_units>  (307) 
nM

>  <target_pref_name>  (307) 
Serotonin 2b (5-HT2b) receptor

>  <target_chembl_id>  (307) 
CHEMBL1833

>  <target_organism>  (307) 
Homo sapiens

>  <pchembl_median>  (307) 
9.96

$$$$
CHEMBL2397906
     RDKit          2D

 19 21  0  0  0  0  0  0  0  0999 V2000
   -3.0000   -2.5981    0.0000 O   0  0  0  0  0  0  0  0  0  0  0  0
   -1.5000   -2.5981    0.0000 C   0  0  0  0  0  0  0  0  0  0  0  0
   -0.7500   -3.8971    0.0000 C   0  0  0  0  0  0  0  0  0  0  0  0
   -1.5000   -5.1962    0.0000 C   0  0  0  0  0  0  0  0  0  0  0  0
   -0.7500   -6.4952    0.0000 C   0  0  0  0  0  0  0  0  0  0  0  0
    0.7500   -6.4952    0.0000 C   0  0  0  0  0  0  0  0  0  0  0  0
    1.5000   -5.1962    0.0000 C   0  0  0  0  0  0  0  0  0  0  0  0
    3.0000   -5.1962    0.0000 C   0  0  0  0  0  0  0  0  0  0  0  0
    4.5000   -5.1962    0.0000 F   0  0  0  0  0  0  0  0  0  0  0  0
    3.0000   -6.6962    0.0000 F   0  0  0  0  0  0  0  0  0  0  0  0
    3.0000   -3.6962    0.0000 F   0  0  0  0  0  0  0  0  0  0  0  0
    0.7500   -3.8971    0.0000 C   0  0  0  0  0  0  0  0  0  0  0  0
    1.5000   -2.5981    0.0000 C   0  0  0  0  0  0  0  0  0  0  0  0
    0.7500   -1.2990    0.0000 C   0  0  0  0  0  0  0  0  0  0  0  0
    1.5000    0.0000    0.0000 C   0  0  0  0  0  0  0  0  0  0  0  0
    0.7500    1.2990    0.0000 N   0  0  0  0  0  0  0  0  0  0  0  0
   -0.7500    1.2990    0.0000 C   0  0  0  0  0  0  0  0  0  0  0  0
   -1.5000    0.0000    0.0000 C   0  0  0  0  0  0  0  0  0  0  0  0
   -0.7500   -1.2990    0.0000 N   0  0  0  0  0  0  0  0  0  0  0  0
  1  2  2  0
  2  3  1  0
  3  4  2  0
  4  5  1  0
  5  6  2  0
  6  7  1  0
  7  8  1  0
  8  9  1  0
  8 10  1  0
  8 11  1  0
  7 12  2  0
 12 13  1  0
 14 13  1  1
 14 15  1  0
 15 16  1  0
 16 17  1  0
 17 18  1  0
 18 19  1  0
 19  2  1  0
 12  3  1  0
 19 14  1  0
M  END
>  <assay_chembl_id>  (308) 
CHEMBL2400231

>  <assay_description>  (308) 
Displacement of [125I]LSD from human recombinant 5-HT2B receptor expressed in HEK293E cells after 45 mins by Top counting analysis

>  <parent_molecule_chembl_id>  (308) 
CHEMBL2397906

>  <canonical_smiles>  (308) 
O=C1c2cccc(C(F)(F)F)c2C[C@@H]2CNCCN12

>  <standard_type>  (308) 
Ki

>  <standard_relation>  (308) 
=

>  <standard_value>  (308) 
5513.0

>  <standard_units>  (308) 
nM

>  <target_pref_name>  (308) 
Serotonin 2b (5-HT2b) receptor

>  <target_chembl_id>  (308) 
CHEMBL1833

>  <target_organism>  (308) 
Homo sapiens

>  <pchembl_median>  (308) 
9.17

$$$$
CHEMBL2397905
     RDKit          2D

 17 19  0  0  0  0  0  0  0  0999 V2000
    3.7500   -6.4952    0.0000 C   0  0  0  0  0  0  0  0  0  0  0  0
    3.0000   -5.1962    0.0000 C   0  0  0  0  0  0  0  0  0  0  0  0
    1.5000   -5.1962    0.0000 C   0  0  0  0  0  0  0  0  0  0  0  0
    0.7500   -6.4952    0.0000 C   0  0  0  0  0  0  0  0  0  0  0  0
   -0.7500   -6.4952    0.0000 C   0  0  0  0  0  0  0  0  0  0  0  0
   -1.5000   -5.1962    0.0000 C   0  0  0  0  0  0  0  0  0  0  0  0
   -0.7500   -3.8971    0.0000 C   0  0  0  0  0  0  0  0  0  0  0  0
    0.7500   -3.8971    0.0000 C   0  0  0  0  0  0  0  0  0  0  0  0
    1.5000   -2.5981    0.0000 C   0  0  0  0  0  0  0  0  0  0  0  0
    0.7500   -1.2990    0.0000 C   0  0  0  0  0  0  0  0  0  0  0  0
    1.5000    0.0000    0.0000 C   0  0  0  0  0  0  0  0  0  0  0  0
    0.7500    1.2990    0.0000 N   0  0  0  0  0  0  0  0  0  0  0  0
   -0.7500    1.2990    0.0000 C   0  0  0  0  0  0  0  0  0  0  0  0
   -1.5000    0.0000    0.0000 C   0  0  0  0  0  0  0  0  0  0  0  0
   -0.7500   -1.2990    0.0000 N   0  0  0  0  0  0  0  0  0  0  0  0
   -1.5000   -2.5981    0.0000 C   0  0  0  0  0  0  0  0  0  0  0  0
   -3.0000   -2.5981    0.0000 O   0  0  0  0  0  0  0  0  0  0  0  0
  1  2  1  0
  2  3  1  0
  3  4  2  0
  4  5  1  0
  5  6  2  0
  6  7  1  0
  7  8  2  0
  8  9  1  0
 10  9  1  1
 10 11  1  0
 11 12  1  0
 12 13  1  0
 13 14  1  0
 14 15  1  0
 15 16  1  0
 16 17  2  0
  8  3  1  0
 15 10  1  0
 16  7  1  0
M  END
>  <assay_chembl_id>  (309) 
CHEMBL2400231

>  <assay_description>  (309) 
Displacement of [125I]LSD from human recombinant 5-HT2B receptor expressed in HEK293E cells after 45 mins by Top counting analysis

>  <parent_molecule_chembl_id>  (309) 
CHEMBL2397905

>  <canonical_smiles>  (309) 
CCc1cccc2c1C[C@@H]1CNCCN1C2=O

>  <standard_type>  (309) 
Ki

>  <standard_relation>  (309) 
=

>  <standard_value>  (309) 
930.0

>  <standard_units>  (309) 
nM

>  <target_pref_name>  (309) 
Serotonin 2b (5-HT2b) receptor

>  <target_chembl_id>  (309) 
CHEMBL1833

>  <target_organism>  (309) 
Homo sapiens

>  <pchembl_median>  (309) 
8.18

$$$$
CHEMBL2397904
     RDKit          2D

 16 18  0  0  0  0  0  0  0  0999 V2000
    3.0000   -5.1962    0.0000 C   0  0  0  0  0  0  0  0  0  0  0  0
    1.5000   -5.1962    0.0000 C   0  0  0  0  0  0  0  0  0  0  0  0
    0.7500   -6.4952    0.0000 C   0  0  0  0  0  0  0  0  0  0  0  0
   -0.7500   -6.4952    0.0000 C   0  0  0  0  0  0  0  0  0  0  0  0
   -1.5000   -5.1962    0.0000 C   0  0  0  0  0  0  0  0  0  0  0  0
   -0.7500   -3.8971    0.0000 C   0  0  0  0  0  0  0  0  0  0  0  0
    0.7500   -3.8971    0.0000 C   0  0  0  0  0  0  0  0  0  0  0  0
    1.5000   -2.5981    0.0000 C   0  0  0  0  0  0  0  0  0  0  0  0
    0.7500   -1.2990    0.0000 C   0  0  0  0  0  0  0  0  0  0  0  0
    1.5000    0.0000    0.0000 C   0  0  0  0  0  0  0  0  0  0  0  0
    0.7500    1.2990    0.0000 N   0  0  0  0  0  0  0  0  0  0  0  0
   -0.7500    1.2990    0.0000 C   0  0  0  0  0  0  0  0  0  0  0  0
   -1.5000    0.0000    0.0000 C   0  0  0  0  0  0  0  0  0  0  0  0
   -0.7500   -1.2990    0.0000 N   0  0  0  0  0  0  0  0  0  0  0  0
   -1.5000   -2.5981    0.0000 C   0  0  0  0  0  0  0  0  0  0  0  0
   -3.0000   -2.5981    0.0000 O   0  0  0  0  0  0  0  0  0  0  0  0
  1  2  1  0
  2  3  2  0
  3  4  1  0
  4  5  2  0
  5  6  1  0
  6  7  2  0
  7  8  1  0
  9  8  1  1
  9 10  1  0
 10 11  1  0
 11 12  1  0
 12 13  1  0
 13 14  1  0
 14 15  1  0
 15 16  2  0
  7  2  1  0
 14  9  1  0
 15  6  1  0
M  END
>  <assay_chembl_id>  (310) 
CHEMBL2400231

>  <assay_description>  (310) 
Displacement of [125I]LSD from human recombinant 5-HT2B receptor expressed in HEK293E cells after 45 mins by Top counting analysis

>  <parent_molecule_chembl_id>  (310) 
CHEMBL2397904

>  <canonical_smiles>  (310) 
Cc1cccc2c1C[C@@H]1CNCCN1C2=O

>  <standard_type>  (310) 
Ki

>  <standard_relation>  (310) 
=

>  <standard_value>  (310) 
118.0

>  <standard_units>  (310) 
nM

>  <target_pref_name>  (310) 
Serotonin 2b (5-HT2b) receptor

>  <target_chembl_id>  (310) 
CHEMBL1833

>  <target_organism>  (310) 
Homo sapiens

>  <pchembl_median>  (310) 
8.2

$$$$
CHEMBL2397903
     RDKit          2D

 17 19  0  0  0  0  0  0  0  0999 V2000
    2.2500   -9.0933    0.0000 N   0  0  0  0  0  0  0  0  0  0  0  0
    1.5000   -7.7942    0.0000 C   0  0  0  0  0  0  0  0  0  0  0  0
    0.7500   -6.4952    0.0000 C   0  0  0  0  0  0  0  0  0  0  0  0
   -0.7500   -6.4952    0.0000 C   0  0  0  0  0  0  0  0  0  0  0  0
   -1.5000   -5.1962    0.0000 C   0  0  0  0  0  0  0  0  0  0  0  0
   -0.7500   -3.8971    0.0000 C   0  0  0  0  0  0  0  0  0  0  0  0
    0.7500   -3.8971    0.0000 C   0  0  0  0  0  0  0  0  0  0  0  0
    1.5000   -5.1962    0.0000 C   0  0  0  0  0  0  0  0  0  0  0  0
    1.5000   -2.5981    0.0000 C   0  0  0  0  0  0  0  0  0  0  0  0
    0.7500   -1.2990    0.0000 C   0  0  0  0  0  0  0  0  0  0  0  0
    1.5000    0.0000    0.0000 C   0  0  0  0  0  0  0  0  0  0  0  0
    0.7500    1.2990    0.0000 N   0  0  0  0  0  0  0  0  0  0  0  0
   -0.7500    1.2990    0.0000 C   0  0  0  0  0  0  0  0  0  0  0  0
   -1.5000    0.0000    0.0000 C   0  0  0  0  0  0  0  0  0  0  0  0
   -0.7500   -1.2990    0.0000 N   0  0  0  0  0  0  0  0  0  0  0  0
   -1.5000   -2.5981    0.0000 C   0  0  0  0  0  0  0  0  0  0  0  0
   -3.0000   -2.5981    0.0000 O   0  0  0  0  0  0  0  0  0  0  0  0
  1  2  3  0
  2  3  1  0
  3  4  2  0
  4  5  1  0
  5  6  2  0
  6  7  1  0
  7  8  2  0
  7  9  1  0
 10  9  1  1
 10 11  1  0
 11 12  1  0
 12 13  1  0
 13 14  1  0
 14 15  1  0
 15 16  1  0
 16 17  2  0
  8  3  1  0
 15 10  1  0
 16  6  1  0
M  END
>  <assay_chembl_id>  (311) 
CHEMBL2400231

>  <assay_description>  (311) 
Displacement of [125I]LSD from human recombinant 5-HT2B receptor expressed in HEK293E cells after 45 mins by Top counting analysis

>  <parent_molecule_chembl_id>  (311) 
CHEMBL2397903

>  <canonical_smiles>  (311) 
N#Cc1ccc2c(c1)C[C@@H]1CNCCN1C2=O

>  <standard_type>  (311) 
Ki

>  <standard_relation>  (311) 
=

>  <standard_value>  (311) 
5816.0

>  <standard_units>  (311) 
nM

>  <target_pref_name>  (311) 
Serotonin 2b (5-HT2b) receptor

>  <target_chembl_id>  (311) 
CHEMBL1833

>  <target_organism>  (311) 
Homo sapiens

>  <pchembl_median>  (311) 
7.75

$$$$
CHEMBL2397902
     RDKit          2D

 17 19  0  0  0  0  0  0  0  0999 V2000
    0.7500   -9.0933    0.0000 C   0  0  0  0  0  0  0  0  0  0  0  0
    1.5000   -7.7942    0.0000 O   0  0  0  0  0  0  0  0  0  0  0  0
    0.7500   -6.4952    0.0000 C   0  0  0  0  0  0  0  0  0  0  0  0
   -0.7500   -6.4952    0.0000 C   0  0  0  0  0  0  0  0  0  0  0  0
   -1.5000   -5.1962    0.0000 C   0  0  0  0  0  0  0  0  0  0  0  0
   -0.7500   -3.8971    0.0000 C   0  0  0  0  0  0  0  0  0  0  0  0
    0.7500   -3.8971    0.0000 C   0  0  0  0  0  0  0  0  0  0  0  0
    1.5000   -5.1962    0.0000 C   0  0  0  0  0  0  0  0  0  0  0  0
    1.5000   -2.5981    0.0000 C   0  0  0  0  0  0  0  0  0  0  0  0
    0.7500   -1.2990    0.0000 C   0  0  0  0  0  0  0  0  0  0  0  0
    1.5000    0.0000    0.0000 C   0  0  0  0  0  0  0  0  0  0  0  0
    0.7500    1.2990    0.0000 N   0  0  0  0  0  0  0  0  0  0  0  0
   -0.7500    1.2990    0.0000 C   0  0  0  0  0  0  0  0  0  0  0  0
   -1.5000    0.0000    0.0000 C   0  0  0  0  0  0  0  0  0  0  0  0
   -0.7500   -1.2990    0.0000 N   0  0  0  0  0  0  0  0  0  0  0  0
   -1.5000   -2.5981    0.0000 C   0  0  0  0  0  0  0  0  0  0  0  0
   -3.0000   -2.5981    0.0000 O   0  0  0  0  0  0  0  0  0  0  0  0
  1  2  1  0
  2  3  1  0
  3  4  2  0
  4  5  1  0
  5  6  2  0
  6  7  1  0
  7  8  2  0
  7  9  1  0
 10  9  1  1
 10 11  1  0
 11 12  1  0
 12 13  1  0
 13 14  1  0
 14 15  1  0
 15 16  1  0
 16 17  2  0
  8  3  1  0
 15 10  1  0
 16  6  1  0
M  END
>  <assay_chembl_id>  (312) 
CHEMBL2400231

>  <assay_description>  (312) 
Displacement of [125I]LSD from human recombinant 5-HT2B receptor expressed in HEK293E cells after 45 mins by Top counting analysis

>  <parent_molecule_chembl_id>  (312) 
CHEMBL2397902

>  <canonical_smiles>  (312) 
COc1ccc2c(c1)C[C@@H]1CNCCN1C2=O

>  <standard_type>  (312) 
Ki

>  <standard_relation>  (312) 
=

>  <standard_value>  (312) 
196.0

>  <standard_units>  (312) 
nM

>  <target_pref_name>  (312) 
Serotonin 2b (5-HT2b) receptor

>  <target_chembl_id>  (312) 
CHEMBL1833

>  <target_organism>  (312) 
Homo sapiens

>  <pchembl_median>  (312) 
9.05

$$$$
CHEMBL2397901
     RDKit          2D

 16 18  0  0  0  0  0  0  0  0999 V2000
   -3.0000   -2.5981    0.0000 O   0  0  0  0  0  0  0  0  0  0  0  0
   -1.5000   -2.5981    0.0000 C   0  0  0  0  0  0  0  0  0  0  0  0
   -0.7500   -3.8971    0.0000 C   0  0  0  0  0  0  0  0  0  0  0  0
   -1.5000   -5.1962    0.0000 C   0  0  0  0  0  0  0  0  0  0  0  0
   -0.7500   -6.4952    0.0000 C   0  0  0  0  0  0  0  0  0  0  0  0
    0.7500   -6.4952    0.0000 C   0  0  0  0  0  0  0  0  0  0  0  0
    1.5000   -7.7942    0.0000 Cl  0  0  0  0  0  0  0  0  0  0  0  0
    1.5000   -5.1962    0.0000 C   0  0  0  0  0  0  0  0  0  0  0  0
    0.7500   -3.8971    0.0000 C   0  0  0  0  0  0  0  0  0  0  0  0
    1.5000   -2.5981    0.0000 C   0  0  0  0  0  0  0  0  0  0  0  0
    0.7500   -1.2990    0.0000 C   0  0  0  0  0  0  0  0  0  0  0  0
    1.5000    0.0000    0.0000 C   0  0  0  0  0  0  0  0  0  0  0  0
    0.7500    1.2990    0.0000 N   0  0  0  0  0  0  0  0  0  0  0  0
   -0.7500    1.2990    0.0000 C   0  0  0  0  0  0  0  0  0  0  0  0
   -1.5000    0.0000    0.0000 C   0  0  0  0  0  0  0  0  0  0  0  0
   -0.7500   -1.2990    0.0000 N   0  0  0  0  0  0  0  0  0  0  0  0
  1  2  2  0
  2  3  1  0
  3  4  2  0
  4  5  1  0
  5  6  2  0
  6  7  1  0
  6  8  1  0
  8  9  2  0
  9 10  1  0
 11 10  1  1
 11 12  1  0
 12 13  1  0
 13 14  1  0
 14 15  1  0
 15 16  1  0
 16  2  1  0
  9  3  1  0
 16 11  1  0
M  END
>  <assay_chembl_id>  (313) 
CHEMBL2400231

>  <assay_description>  (313) 
Displacement of [125I]LSD from human recombinant 5-HT2B receptor expressed in HEK293E cells after 45 mins by Top counting analysis

>  <parent_molecule_chembl_id>  (313) 
CHEMBL2397901

>  <canonical_smiles>  (313) 
O=C1c2ccc(Cl)cc2C[C@@H]2CNCCN12

>  <standard_type>  (313) 
Ki

>  <standard_relation>  (313) 
=

>  <standard_value>  (313) 
127.0

>  <standard_units>  (313) 
nM

>  <target_pref_name>  (313) 
Serotonin 2b (5-HT2b) receptor

>  <target_chembl_id>  (313) 
CHEMBL1833

>  <target_organism>  (313) 
Homo sapiens

>  <pchembl_median>  (313) 
8.36

$$$$
CHEMBL2397900
     RDKit          2D

 19 21  0  0  0  0  0  0  0  0999 V2000
   -3.0000   -2.5981    0.0000 O   0  0  0  0  0  0  0  0  0  0  0  0
   -1.5000   -2.5981    0.0000 C   0  0  0  0  0  0  0  0  0  0  0  0
   -0.7500   -3.8971    0.0000 C   0  0  0  0  0  0  0  0  0  0  0  0
   -1.5000   -5.1962    0.0000 C   0  0  0  0  0  0  0  0  0  0  0  0
   -0.7500   -6.4952    0.0000 C   0  0  0  0  0  0  0  0  0  0  0  0
    0.7500   -6.4952    0.0000 C   0  0  0  0  0  0  0  0  0  0  0  0
    1.5000   -7.7942    0.0000 C   0  0  0  0  0  0  0  0  0  0  0  0
    2.2500   -9.0933    0.0000 F   0  0  0  0  0  0  0  0  0  0  0  0
    0.2010   -8.5442    0.0000 F   0  0  0  0  0  0  0  0  0  0  0  0
    2.7990   -7.0442    0.0000 F   0  0  0  0  0  0  0  0  0  0  0  0
    1.5000   -5.1962    0.0000 C   0  0  0  0  0  0  0  0  0  0  0  0
    0.7500   -3.8971    0.0000 C   0  0  0  0  0  0  0  0  0  0  0  0
    1.5000   -2.5981    0.0000 C   0  0  0  0  0  0  0  0  0  0  0  0
    0.7500   -1.2990    0.0000 C   0  0  0  0  0  0  0  0  0  0  0  0
    1.5000    0.0000    0.0000 C   0  0  0  0  0  0  0  0  0  0  0  0
    0.7500    1.2990    0.0000 N   0  0  0  0  0  0  0  0  0  0  0  0
   -0.7500    1.2990    0.0000 C   0  0  0  0  0  0  0  0  0  0  0  0
   -1.5000    0.0000    0.0000 C   0  0  0  0  0  0  0  0  0  0  0  0
   -0.7500   -1.2990    0.0000 N   0  0  0  0  0  0  0  0  0  0  0  0
  1  2  2  0
  2  3  1  0
  3  4  2  0
  4  5  1  0
  5  6  2  0
  6  7  1  0
  7  8  1  0
  7  9  1  0
  7 10  1  0
  6 11  1  0
 11 12  2  0
 12 13  1  0
 14 13  1  1
 14 15  1  0
 15 16  1  0
 16 17  1  0
 17 18  1  0
 18 19  1  0
 19  2  1  0
 12  3  1  0
 19 14  1  0
M  END
>  <assay_chembl_id>  (314) 
CHEMBL2400231

>  <assay_description>  (314) 
Displacement of [125I]LSD from human recombinant 5-HT2B receptor expressed in HEK293E cells after 45 mins by Top counting analysis

>  <parent_molecule_chembl_id>  (314) 
CHEMBL2397900

>  <canonical_smiles>  (314) 
O=C1c2ccc(C(F)(F)F)cc2C[C@@H]2CNCCN12

>  <standard_type>  (314) 
Ki

>  <standard_relation>  (314) 
=

>  <standard_value>  (314) 
778.0

>  <standard_units>  (314) 
nM

>  <target_pref_name>  (314) 
Serotonin 2b (5-HT2b) receptor

>  <target_chembl_id>  (314) 
CHEMBL1833

>  <target_organism>  (314) 
Homo sapiens

>  <pchembl_median>  (314) 
8.37

$$$$
CHEMBL2397899
     RDKit          2D

 18 20  0  0  0  0  0  0  0  0999 V2000
    1.5000  -10.3923    0.0000 C   0  0  0  0  0  0  0  0  0  0  0  0
    0.7500   -9.0933    0.0000 C   0  0  0  0  0  0  0  0  0  0  0  0
    1.5000   -7.7942    0.0000 C   0  0  0  0  0  0  0  0  0  0  0  0
    0.7500   -6.4952    0.0000 C   0  0  0  0  0  0  0  0  0  0  0  0
   -0.7500   -6.4952    0.0000 C   0  0  0  0  0  0  0  0  0  0  0  0
   -1.5000   -5.1962    0.0000 C   0  0  0  0  0  0  0  0  0  0  0  0
   -0.7500   -3.8971    0.0000 C   0  0  0  0  0  0  0  0  0  0  0  0
    0.7500   -3.8971    0.0000 C   0  0  0  0  0  0  0  0  0  0  0  0
    1.5000   -5.1962    0.0000 C   0  0  0  0  0  0  0  0  0  0  0  0
    1.5000   -2.5981    0.0000 C   0  0  0  0  0  0  0  0  0  0  0  0
    0.7500   -1.2990    0.0000 C   0  0  0  0  0  0  0  0  0  0  0  0
    1.5000    0.0000    0.0000 C   0  0  0  0  0  0  0  0  0  0  0  0
    0.7500    1.2990    0.0000 N   0  0  0  0  0  0  0  0  0  0  0  0
   -0.7500    1.2990    0.0000 C   0  0  0  0  0  0  0  0  0  0  0  0
   -1.5000    0.0000    0.0000 C   0  0  0  0  0  0  0  0  0  0  0  0
   -0.7500   -1.2990    0.0000 N   0  0  0  0  0  0  0  0  0  0  0  0
   -1.5000   -2.5981    0.0000 C   0  0  0  0  0  0  0  0  0  0  0  0
   -3.0000   -2.5981    0.0000 O   0  0  0  0  0  0  0  0  0  0  0  0
  1  2  1  0
  2  3  1  0
  3  4  1  0
  4  5  2  0
  5  6  1  0
  6  7  2  0
  7  8  1  0
  8  9  2  0
  8 10  1  0
 11 10  1  1
 11 12  1  0
 12 13  1  0
 13 14  1  0
 14 15  1  0
 15 16  1  0
 16 17  1  0
 17 18  2  0
  9  4  1  0
 16 11  1  0
 17  7  1  0
M  END
>  <assay_chembl_id>  (315) 
CHEMBL2400231

>  <assay_description>  (315) 
Displacement of [125I]LSD from human recombinant 5-HT2B receptor expressed in HEK293E cells after 45 mins by Top counting analysis

>  <parent_molecule_chembl_id>  (315) 
CHEMBL2397899

>  <canonical_smiles>  (315) 
CCCc1ccc2c(c1)C[C@@H]1CNCCN1C2=O

>  <standard_type>  (315) 
Ki

>  <standard_relation>  (315) 
=

>  <standard_value>  (315) 
340.0

>  <standard_units>  (315) 
nM

>  <target_pref_name>  (315) 
Serotonin 2b (5-HT2b) receptor

>  <target_chembl_id>  (315) 
CHEMBL1833

>  <target_organism>  (315) 
Homo sapiens

>  <pchembl_median>  (315) 
8.7

$$$$
CHEMBL2397898
     RDKit          2D

 17 19  0  0  0  0  0  0  0  0999 V2000
    0.7500   -9.0933    0.0000 C   0  0  0  0  0  0  0  0  0  0  0  0
    1.5000   -7.7942    0.0000 C   0  0  0  0  0  0  0  0  0  0  0  0
    0.7500   -6.4952    0.0000 C   0  0  0  0  0  0  0  0  0  0  0  0
   -0.7500   -6.4952    0.0000 C   0  0  0  0  0  0  0  0  0  0  0  0
   -1.5000   -5.1962    0.0000 C   0  0  0  0  0  0  0  0  0  0  0  0
   -0.7500   -3.8971    0.0000 C   0  0  0  0  0  0  0  0  0  0  0  0
    0.7500   -3.8971    0.0000 C   0  0  0  0  0  0  0  0  0  0  0  0
    1.5000   -5.1962    0.0000 C   0  0  0  0  0  0  0  0  0  0  0  0
    1.5000   -2.5981    0.0000 C   0  0  0  0  0  0  0  0  0  0  0  0
    0.7500   -1.2990    0.0000 C   0  0  0  0  0  0  0  0  0  0  0  0
    1.5000    0.0000    0.0000 C   0  0  0  0  0  0  0  0  0  0  0  0
    0.7500    1.2990    0.0000 N   0  0  0  0  0  0  0  0  0  0  0  0
   -0.7500    1.2990    0.0000 C   0  0  0  0  0  0  0  0  0  0  0  0
   -1.5000    0.0000    0.0000 C   0  0  0  0  0  0  0  0  0  0  0  0
   -0.7500   -1.2990    0.0000 N   0  0  0  0  0  0  0  0  0  0  0  0
   -1.5000   -2.5981    0.0000 C   0  0  0  0  0  0  0  0  0  0  0  0
   -3.0000   -2.5981    0.0000 O   0  0  0  0  0  0  0  0  0  0  0  0
  1  2  1  0
  2  3  1  0
  3  4  2  0
  4  5  1  0
  5  6  2  0
  6  7  1  0
  7  8  2  0
  7  9  1  0
 10  9  1  1
 10 11  1  0
 11 12  1  0
 12 13  1  0
 13 14  1  0
 14 15  1  0
 15 16  1  0
 16 17  2  0
  8  3  1  0
 15 10  1  0
 16  6  1  0
M  END
>  <assay_chembl_id>  (316) 
CHEMBL2400231

>  <assay_description>  (316) 
Displacement of [125I]LSD from human recombinant 5-HT2B receptor expressed in HEK293E cells after 45 mins by Top counting analysis

>  <parent_molecule_chembl_id>  (316) 
CHEMBL2397898

>  <canonical_smiles>  (316) 
CCc1ccc2c(c1)C[C@@H]1CNCCN1C2=O

>  <standard_type>  (316) 
Ki

>  <standard_relation>  (316) 
=

>  <standard_value>  (316) 
227.0

>  <standard_units>  (316) 
nM

>  <target_pref_name>  (316) 
Serotonin 2b (5-HT2b) receptor

>  <target_chembl_id>  (316) 
CHEMBL1833

>  <target_organism>  (316) 
Homo sapiens

>  <pchembl_median>  (316) 
7.39

$$$$
CHEMBL2397880
     RDKit          2D

 16 18  0  0  0  0  0  0  0  0999 V2000
    1.5000   -7.7942    0.0000 C   0  0  0  0  0  0  0  0  0  0  0  0
    0.7500   -6.4952    0.0000 C   0  0  0  0  0  0  0  0  0  0  0  0
   -0.7500   -6.4952    0.0000 C   0  0  0  0  0  0  0  0  0  0  0  0
   -1.5000   -5.1962    0.0000 C   0  0  0  0  0  0  0  0  0  0  0  0
   -0.7500   -3.8971    0.0000 C   0  0  0  0  0  0  0  0  0  0  0  0
    0.7500   -3.8971    0.0000 C   0  0  0  0  0  0  0  0  0  0  0  0
    1.5000   -5.1962    0.0000 C   0  0  0  0  0  0  0  0  0  0  0  0
    1.5000   -2.5981    0.0000 C   0  0  0  0  0  0  0  0  0  0  0  0
    0.7500   -1.2990    0.0000 C   0  0  0  0  0  0  0  0  0  0  0  0
    1.5000    0.0000    0.0000 C   0  0  0  0  0  0  0  0  0  0  0  0
    0.7500    1.2990    0.0000 N   0  0  0  0  0  0  0  0  0  0  0  0
   -0.7500    1.2990    0.0000 C   0  0  0  0  0  0  0  0  0  0  0  0
   -1.5000    0.0000    0.0000 C   0  0  0  0  0  0  0  0  0  0  0  0
   -0.7500   -1.2990    0.0000 N   0  0  0  0  0  0  0  0  0  0  0  0
   -1.5000   -2.5981    0.0000 C   0  0  0  0  0  0  0  0  0  0  0  0
   -3.0000   -2.5981    0.0000 O   0  0  0  0  0  0  0  0  0  0  0  0
  1  2  1  0
  2  3  2  0
  3  4  1  0
  4  5  2  0
  5  6  1  0
  6  7  2  0
  6  8  1  0
  9  8  1  1
  9 10  1  0
 10 11  1  0
 11 12  1  0
 12 13  1  0
 13 14  1  0
 14 15  1  0
 15 16  2  0
  7  2  1  0
 14  9  1  0
 15  5  1  0
M  END
>  <assay_chembl_id>  (317) 
CHEMBL2400231

>  <assay_description>  (317) 
Displacement of [125I]LSD from human recombinant 5-HT2B receptor expressed in HEK293E cells after 45 mins by Top counting analysis

>  <parent_molecule_chembl_id>  (317) 
CHEMBL2397880

>  <canonical_smiles>  (317) 
Cc1ccc2c(c1)C[C@@H]1CNCCN1C2=O

>  <standard_type>  (317) 
Ki

>  <standard_relation>  (317) 
=

>  <standard_value>  (317) 
105.0

>  <standard_units>  (317) 
nM

>  <target_pref_name>  (317) 
Serotonin 2b (5-HT2b) receptor

>  <target_chembl_id>  (317) 
CHEMBL1833

>  <target_organism>  (317) 
Homo sapiens

>  <pchembl_median>  (317) 
7.51

$$$$
CHEMBL2397878
     RDKit          2D

 17 19  0  0  0  0  0  0  0  0999 V2000
    0.7500   -9.0933    0.0000 C   0  0  0  0  0  0  0  0  0  0  0  0
    1.5000   -7.7942    0.0000 O   0  0  0  0  0  0  0  0  0  0  0  0
    0.7500   -6.4952    0.0000 C   0  0  0  0  0  0  0  0  0  0  0  0
   -0.7500   -6.4952    0.0000 C   0  0  0  0  0  0  0  0  0  0  0  0
   -1.5000   -5.1962    0.0000 C   0  0  0  0  0  0  0  0  0  0  0  0
   -0.7500   -3.8971    0.0000 C   0  0  0  0  0  0  0  0  0  0  0  0
    0.7500   -3.8971    0.0000 C   0  0  0  0  0  0  0  0  0  0  0  0
    1.5000   -5.1962    0.0000 C   0  0  0  0  0  0  0  0  0  0  0  0
    1.5000   -2.5981    0.0000 C   0  0  0  0  0  0  0  0  0  0  0  0
    3.0000   -2.5981    0.0000 O   0  0  0  0  0  0  0  0  0  0  0  0
    0.7500   -1.2990    0.0000 N   0  0  0  0  0  0  0  0  0  0  0  0
    1.5000    0.0000    0.0000 C   0  0  0  0  0  0  0  0  0  0  0  0
    0.7500    1.2990    0.0000 C   0  0  0  0  0  0  0  0  0  0  0  0
   -0.7500    1.2990    0.0000 N   0  0  0  0  0  0  0  0  0  0  0  0
   -1.5000    0.0000    0.0000 C   0  0  0  0  0  0  0  0  0  0  0  0
   -0.7500   -1.2990    0.0000 C   0  0  0  0  0  0  0  0  0  0  0  0
   -1.5000   -2.5981    0.0000 C   0  0  0  0  0  0  0  0  0  0  0  0
  1  2  1  0
  2  3  1  0
  3  4  2  0
  4  5  1  0
  5  6  2  0
  6  7  1  0
  7  8  2  0
  7  9  1  0
  9 10  2  0
  9 11  1  0
 11 12  1  0
 12 13  1  0
 13 14  1  0
 14 15  1  0
 16 15  1  6
 16 17  1  0
  8  3  1  0
 16 11  1  0
 17  6  1  0
M  END
>  <assay_chembl_id>  (318) 
CHEMBL2400231

>  <assay_description>  (318) 
Displacement of [125I]LSD from human recombinant 5-HT2B receptor expressed in HEK293E cells after 45 mins by Top counting analysis

>  <parent_molecule_chembl_id>  (318) 
CHEMBL2397878

>  <canonical_smiles>  (318) 
COc1ccc2c(c1)C(=O)N1CCNC[C@H]1C2

>  <standard_type>  (318) 
Ki

>  <standard_relation>  (318) 
=

>  <standard_value>  (318) 
115.0

>  <standard_units>  (318) 
nM

>  <target_pref_name>  (318) 
Serotonin 2b (5-HT2b) receptor

>  <target_chembl_id>  (318) 
CHEMBL1833

>  <target_organism>  (318) 
Homo sapiens

>  <pchembl_median>  (318) 
8.77

$$$$
CHEMBL2397877
     RDKit          2D

 16 18  0  0  0  0  0  0  0  0999 V2000
   -3.0000   -2.5981    0.0000 O   0  0  0  0  0  0  0  0  0  0  0  0
   -1.5000   -2.5981    0.0000 C   0  0  0  0  0  0  0  0  0  0  0  0
   -0.7500   -3.8971    0.0000 C   0  0  0  0  0  0  0  0  0  0  0  0
   -1.5000   -5.1962    0.0000 C   0  0  0  0  0  0  0  0  0  0  0  0
   -0.7500   -6.4952    0.0000 C   0  0  0  0  0  0  0  0  0  0  0  0
   -1.5000   -7.7942    0.0000 Cl  0  0  0  0  0  0  0  0  0  0  0  0
    0.7500   -6.4952    0.0000 C   0  0  0  0  0  0  0  0  0  0  0  0
    1.5000   -5.1962    0.0000 C   0  0  0  0  0  0  0  0  0  0  0  0
    0.7500   -3.8971    0.0000 C   0  0  0  0  0  0  0  0  0  0  0  0
    1.5000   -2.5981    0.0000 C   0  0  0  0  0  0  0  0  0  0  0  0
    0.7500   -1.2990    0.0000 C   0  0  0  0  0  0  0  0  0  0  0  0
    1.5000    0.0000    0.0000 C   0  0  0  0  0  0  0  0  0  0  0  0
    0.7500    1.2990    0.0000 N   0  0  0  0  0  0  0  0  0  0  0  0
   -0.7500    1.2990    0.0000 C   0  0  0  0  0  0  0  0  0  0  0  0
   -1.5000    0.0000    0.0000 C   0  0  0  0  0  0  0  0  0  0  0  0
   -0.7500   -1.2990    0.0000 N   0  0  0  0  0  0  0  0  0  0  0  0
  1  2  2  0
  2  3  1  0
  3  4  2  0
  4  5  1  0
  5  6  1  0
  5  7  2  0
  7  8  1  0
  8  9  2  0
  9 10  1  0
 11 10  1  1
 11 12  1  0
 12 13  1  0
 13 14  1  0
 14 15  1  0
 15 16  1  0
 16  2  1  0
  9  3  1  0
 16 11  1  0
M  END
>  <assay_chembl_id>  (319) 
CHEMBL2400231

>  <assay_description>  (319) 
Displacement of [125I]LSD from human recombinant 5-HT2B receptor expressed in HEK293E cells after 45 mins by Top counting analysis

>  <parent_molecule_chembl_id>  (319) 
CHEMBL2397877

>  <canonical_smiles>  (319) 
O=C1c2cc(Cl)ccc2C[C@@H]2CNCCN12

>  <standard_type>  (319) 
Ki

>  <standard_relation>  (319) 
=

>  <standard_value>  (319) 
54.0

>  <standard_units>  (319) 
nM

>  <target_pref_name>  (319) 
Serotonin 2b (5-HT2b) receptor

>  <target_chembl_id>  (319) 
CHEMBL1833

>  <target_organism>  (319) 
Homo sapiens

>  <pchembl_median>  (319) 
8.29

$$$$
CHEMBL2397915
     RDKit          2D

 19 21  0  0  0  0  0  0  0  0999 V2000
   -3.0000   -2.5981    0.0000 O   0  0  0  0  0  0  0  0  0  0  0  0
   -1.5000   -2.5981    0.0000 C   0  0  0  0  0  0  0  0  0  0  0  0
   -0.7500   -3.8971    0.0000 C   0  0  0  0  0  0  0  0  0  0  0  0
   -1.5000   -5.1962    0.0000 C   0  0  0  0  0  0  0  0  0  0  0  0
   -0.7500   -6.4952    0.0000 C   0  0  0  0  0  0  0  0  0  0  0  0
   -1.5000   -7.7942    0.0000 C   0  0  0  0  0  0  0  0  0  0  0  0
   -2.2500   -9.0933    0.0000 F   0  0  0  0  0  0  0  0  0  0  0  0
   -2.7990   -7.0442    0.0000 F   0  0  0  0  0  0  0  0  0  0  0  0
   -0.2010   -8.5442    0.0000 F   0  0  0  0  0  0  0  0  0  0  0  0
    0.7500   -6.4952    0.0000 C   0  0  0  0  0  0  0  0  0  0  0  0
    1.5000   -5.1962    0.0000 C   0  0  0  0  0  0  0  0  0  0  0  0
    0.7500   -3.8971    0.0000 C   0  0  0  0  0  0  0  0  0  0  0  0
    1.5000   -2.5981    0.0000 C   0  0  0  0  0  0  0  0  0  0  0  0
    0.7500   -1.2990    0.0000 C   0  0  0  0  0  0  0  0  0  0  0  0
    1.5000    0.0000    0.0000 C   0  0  0  0  0  0  0  0  0  0  0  0
    0.7500    1.2990    0.0000 N   0  0  0  0  0  0  0  0  0  0  0  0
   -0.7500    1.2990    0.0000 C   0  0  0  0  0  0  0  0  0  0  0  0
   -1.5000    0.0000    0.0000 C   0  0  0  0  0  0  0  0  0  0  0  0
   -0.7500   -1.2990    0.0000 N   0  0  0  0  0  0  0  0  0  0  0  0
  1  2  2  0
  2  3  1  0
  3  4  2  0
  4  5  1  0
  5  6  1  0
  6  7  1  0
  6  8  1  0
  6  9  1  0
  5 10  2  0
 10 11  1  0
 11 12  2  0
 12 13  1  0
 14 13  1  1
 14 15  1  0
 15 16  1  0
 16 17  1  0
 17 18  1  0
 18 19  1  0
 19  2  1  0
 12  3  1  0
 19 14  1  0
M  END
>  <assay_chembl_id>  (320) 
CHEMBL2400231

>  <assay_description>  (320) 
Displacement of [125I]LSD from human recombinant 5-HT2B receptor expressed in HEK293E cells after 45 mins by Top counting analysis

>  <parent_molecule_chembl_id>  (320) 
CHEMBL2397915

>  <canonical_smiles>  (320) 
O=C1c2cc(C(F)(F)F)ccc2C[C@@H]2CNCCN12

>  <standard_type>  (320) 
Ki

>  <standard_relation>  (320) 
=

>  <standard_value>  (320) 
340.0

>  <standard_units>  (320) 
nM

>  <target_pref_name>  (320) 
Serotonin 2b (5-HT2b) receptor

>  <target_chembl_id>  (320) 
CHEMBL1833

>  <target_organism>  (320) 
Homo sapiens

>  <pchembl_median>  (320) 
8.04

$$$$
CHEMBL2397897
     RDKit          2D

 17 19  0  0  0  0  0  0  0  0999 V2000
    0.7500   -9.0933    0.0000 C   0  0  0  0  0  0  0  0  0  0  0  0
    1.5000   -7.7942    0.0000 C   0  0  0  0  0  0  0  0  0  0  0  0
    0.7500   -6.4952    0.0000 C   0  0  0  0  0  0  0  0  0  0  0  0
   -0.7500   -6.4952    0.0000 C   0  0  0  0  0  0  0  0  0  0  0  0
   -1.5000   -5.1962    0.0000 C   0  0  0  0  0  0  0  0  0  0  0  0
   -0.7500   -3.8971    0.0000 C   0  0  0  0  0  0  0  0  0  0  0  0
    0.7500   -3.8971    0.0000 C   0  0  0  0  0  0  0  0  0  0  0  0
    1.5000   -5.1962    0.0000 C   0  0  0  0  0  0  0  0  0  0  0  0
    1.5000   -2.5981    0.0000 C   0  0  0  0  0  0  0  0  0  0  0  0
    3.0000   -2.5981    0.0000 O   0  0  0  0  0  0  0  0  0  0  0  0
    0.7500   -1.2990    0.0000 N   0  0  0  0  0  0  0  0  0  0  0  0
    1.5000    0.0000    0.0000 C   0  0  0  0  0  0  0  0  0  0  0  0
    0.7500    1.2990    0.0000 C   0  0  0  0  0  0  0  0  0  0  0  0
   -0.7500    1.2990    0.0000 N   0  0  0  0  0  0  0  0  0  0  0  0
   -1.5000    0.0000    0.0000 C   0  0  0  0  0  0  0  0  0  0  0  0
   -0.7500   -1.2990    0.0000 C   0  0  0  0  0  0  0  0  0  0  0  0
   -1.5000   -2.5981    0.0000 C   0  0  0  0  0  0  0  0  0  0  0  0
  1  2  1  0
  2  3  1  0
  3  4  2  0
  4  5  1  0
  5  6  2  0
  6  7  1  0
  7  8  2  0
  7  9  1  0
  9 10  2  0
  9 11  1  0
 11 12  1  0
 12 13  1  0
 13 14  1  0
 14 15  1  0
 16 15  1  6
 16 17  1  0
  8  3  1  0
 16 11  1  0
 17  6  1  0
M  END
>  <assay_chembl_id>  (321) 
CHEMBL2400231

>  <assay_description>  (321) 
Displacement of [125I]LSD from human recombinant 5-HT2B receptor expressed in HEK293E cells after 45 mins by Top counting analysis

>  <parent_molecule_chembl_id>  (321) 
CHEMBL2397897

>  <canonical_smiles>  (321) 
CCc1ccc2c(c1)C(=O)N1CCNC[C@H]1C2

>  <standard_type>  (321) 
Ki

>  <standard_relation>  (321) 
=

>  <standard_value>  (321) 
47.0

>  <standard_units>  (321) 
nM

>  <target_pref_name>  (321) 
Serotonin 2b (5-HT2b) receptor

>  <target_chembl_id>  (321) 
CHEMBL1833

>  <target_organism>  (321) 
Homo sapiens

>  <pchembl_median>  (321) 
8.48

$$$$
CHEMBL2397896
     RDKit          2D

 16 18  0  0  0  0  0  0  0  0999 V2000
    1.5000   -7.7942    0.0000 C   0  0  0  0  0  0  0  0  0  0  0  0
    0.7500   -6.4952    0.0000 C   0  0  0  0  0  0  0  0  0  0  0  0
   -0.7500   -6.4952    0.0000 C   0  0  0  0  0  0  0  0  0  0  0  0
   -1.5000   -5.1962    0.0000 C   0  0  0  0  0  0  0  0  0  0  0  0
   -0.7500   -3.8971    0.0000 C   0  0  0  0  0  0  0  0  0  0  0  0
    0.7500   -3.8971    0.0000 C   0  0  0  0  0  0  0  0  0  0  0  0
    1.5000   -5.1962    0.0000 C   0  0  0  0  0  0  0  0  0  0  0  0
    1.5000   -2.5981    0.0000 C   0  0  0  0  0  0  0  0  0  0  0  0
    3.0000   -2.5981    0.0000 O   0  0  0  0  0  0  0  0  0  0  0  0
    0.7500   -1.2990    0.0000 N   0  0  0  0  0  0  0  0  0  0  0  0
    1.5000    0.0000    0.0000 C   0  0  0  0  0  0  0  0  0  0  0  0
    0.7500    1.2990    0.0000 C   0  0  0  0  0  0  0  0  0  0  0  0
   -0.7500    1.2990    0.0000 N   0  0  0  0  0  0  0  0  0  0  0  0
   -1.5000    0.0000    0.0000 C   0  0  0  0  0  0  0  0  0  0  0  0
   -0.7500   -1.2990    0.0000 C   0  0  0  0  0  0  0  0  0  0  0  0
   -1.5000   -2.5981    0.0000 C   0  0  0  0  0  0  0  0  0  0  0  0
  1  2  1  0
  2  3  2  0
  3  4  1  0
  4  5  2  0
  5  6  1  0
  6  7  2  0
  6  8  1  0
  8  9  2  0
  8 10  1  0
 10 11  1  0
 11 12  1  0
 12 13  1  0
 13 14  1  0
 15 14  1  6
 15 16  1  0
  7  2  1  0
 15 10  1  0
 16  5  1  0
M  END
>  <assay_chembl_id>  (322) 
CHEMBL2400231

>  <assay_description>  (322) 
Displacement of [125I]LSD from human recombinant 5-HT2B receptor expressed in HEK293E cells after 45 mins by Top counting analysis

>  <parent_molecule_chembl_id>  (322) 
CHEMBL2397896

>  <canonical_smiles>  (322) 
Cc1ccc2c(c1)C(=O)N1CCNC[C@H]1C2

>  <standard_type>  (322) 
Ki

>  <standard_relation>  (322) 
=

>  <standard_value>  (322) 
32.0

>  <standard_units>  (322) 
nM

>  <target_pref_name>  (322) 
Serotonin 2b (5-HT2b) receptor

>  <target_chembl_id>  (322) 
CHEMBL1833

>  <target_organism>  (322) 
Homo sapiens

>  <pchembl_median>  (322) 
8.32

$$$$
CHEMBL2397895
     RDKit          2D

 17 19  0  0  0  0  0  0  0  0999 V2000
    4.5000   -5.1962    0.0000 N   0  0  0  0  0  0  0  0  0  0  0  0
    3.0000   -5.1962    0.0000 C   0  0  0  0  0  0  0  0  0  0  0  0
    1.5000   -5.1962    0.0000 C   0  0  0  0  0  0  0  0  0  0  0  0
    0.7500   -6.4952    0.0000 C   0  0  0  0  0  0  0  0  0  0  0  0
   -0.7500   -6.4952    0.0000 C   0  0  0  0  0  0  0  0  0  0  0  0
   -1.5000   -5.1962    0.0000 C   0  0  0  0  0  0  0  0  0  0  0  0
   -0.7500   -3.8971    0.0000 C   0  0  0  0  0  0  0  0  0  0  0  0
    0.7500   -3.8971    0.0000 C   0  0  0  0  0  0  0  0  0  0  0  0
    1.5000   -2.5981    0.0000 C   0  0  0  0  0  0  0  0  0  0  0  0
    3.0000   -2.5981    0.0000 O   0  0  0  0  0  0  0  0  0  0  0  0
    0.7500   -1.2990    0.0000 N   0  0  0  0  0  0  0  0  0  0  0  0
    1.5000    0.0000    0.0000 C   0  0  0  0  0  0  0  0  0  0  0  0
    0.7500    1.2990    0.0000 C   0  0  0  0  0  0  0  0  0  0  0  0
   -0.7500    1.2990    0.0000 N   0  0  0  0  0  0  0  0  0  0  0  0
   -1.5000    0.0000    0.0000 C   0  0  0  0  0  0  0  0  0  0  0  0
   -0.7500   -1.2990    0.0000 C   0  0  0  0  0  0  0  0  0  0  0  0
   -1.5000   -2.5981    0.0000 C   0  0  0  0  0  0  0  0  0  0  0  0
  1  2  3  0
  2  3  1  0
  3  4  2  0
  4  5  1  0
  5  6  2  0
  6  7  1  0
  7  8  2  0
  8  9  1  0
  9 10  2  0
  9 11  1  0
 11 12  1  0
 12 13  1  0
 13 14  1  0
 14 15  1  0
 16 15  1  6
 16 17  1  0
  8  3  1  0
 16 11  1  0
 17  7  1  0
M  END
>  <assay_chembl_id>  (323) 
CHEMBL2400231

>  <assay_description>  (323) 
Displacement of [125I]LSD from human recombinant 5-HT2B receptor expressed in HEK293E cells after 45 mins by Top counting analysis

>  <parent_molecule_chembl_id>  (323) 
CHEMBL2397895

>  <canonical_smiles>  (323) 
N#Cc1cccc2c1C(=O)N1CCNC[C@H]1C2

>  <standard_type>  (323) 
Ki

>  <standard_relation>  (323) 
=

>  <standard_value>  (323) 
510.0

>  <standard_units>  (323) 
nM

>  <target_pref_name>  (323) 
Serotonin 2b (5-HT2b) receptor

>  <target_chembl_id>  (323) 
CHEMBL1833

>  <target_organism>  (323) 
Homo sapiens

>  <pchembl_median>  (323) 
9.29

$$$$
CHEMBL2397894
     RDKit          2D

 17 19  0  0  0  0  0  0  0  0999 V2000
    3.7500   -6.4952    0.0000 C   0  0  0  0  0  0  0  0  0  0  0  0
    3.0000   -5.1962    0.0000 O   0  0  0  0  0  0  0  0  0  0  0  0
    1.5000   -5.1962    0.0000 C   0  0  0  0  0  0  0  0  0  0  0  0
    0.7500   -6.4952    0.0000 C   0  0  0  0  0  0  0  0  0  0  0  0
   -0.7500   -6.4952    0.0000 C   0  0  0  0  0  0  0  0  0  0  0  0
   -1.5000   -5.1962    0.0000 C   0  0  0  0  0  0  0  0  0  0  0  0
   -0.7500   -3.8971    0.0000 C   0  0  0  0  0  0  0  0  0  0  0  0
    0.7500   -3.8971    0.0000 C   0  0  0  0  0  0  0  0  0  0  0  0
    1.5000   -2.5981    0.0000 C   0  0  0  0  0  0  0  0  0  0  0  0
    3.0000   -2.5981    0.0000 O   0  0  0  0  0  0  0  0  0  0  0  0
    0.7500   -1.2990    0.0000 N   0  0  0  0  0  0  0  0  0  0  0  0
    1.5000    0.0000    0.0000 C   0  0  0  0  0  0  0  0  0  0  0  0
    0.7500    1.2990    0.0000 C   0  0  0  0  0  0  0  0  0  0  0  0
   -0.7500    1.2990    0.0000 N   0  0  0  0  0  0  0  0  0  0  0  0
   -1.5000    0.0000    0.0000 C   0  0  0  0  0  0  0  0  0  0  0  0
   -0.7500   -1.2990    0.0000 C   0  0  0  0  0  0  0  0  0  0  0  0
   -1.5000   -2.5981    0.0000 C   0  0  0  0  0  0  0  0  0  0  0  0
  1  2  1  0
  2  3  1  0
  3  4  2  0
  4  5  1  0
  5  6  2  0
  6  7  1  0
  7  8  2  0
  8  9  1  0
  9 10  2  0
  9 11  1  0
 11 12  1  0
 12 13  1  0
 13 14  1  0
 14 15  1  0
 16 15  1  6
 16 17  1  0
  8  3  1  0
 16 11  1  0
 17  7  1  0
M  END
>  <assay_chembl_id>  (324) 
CHEMBL2400231

>  <assay_description>  (324) 
Displacement of [125I]LSD from human recombinant 5-HT2B receptor expressed in HEK293E cells after 45 mins by Top counting analysis

>  <parent_molecule_chembl_id>  (324) 
CHEMBL2397894

>  <canonical_smiles>  (324) 
COc1cccc2c1C(=O)N1CCNC[C@H]1C2

>  <standard_type>  (324) 
Ki

>  <standard_relation>  (324) 
=

>  <standard_value>  (324) 
139.0

>  <standard_units>  (324) 
nM

>  <target_pref_name>  (324) 
Serotonin 2b (5-HT2b) receptor

>  <target_chembl_id>  (324) 
CHEMBL1833

>  <target_organism>  (324) 
Homo sapiens

>  <pchembl_median>  (324) 
7.4

$$$$
CHEMBL2397893
     RDKit          2D

 16 18  0  0  0  0  0  0  0  0999 V2000
   -3.0000   -2.5981    0.0000 O   0  0  0  0  0  0  0  0  0  0  0  0
   -1.5000   -2.5981    0.0000 C   0  0  0  0  0  0  0  0  0  0  0  0
   -0.7500   -3.8971    0.0000 C   0  0  0  0  0  0  0  0  0  0  0  0
   -1.5000   -5.1962    0.0000 C   0  0  0  0  0  0  0  0  0  0  0  0
   -3.0000   -5.1962    0.0000 Cl  0  0  0  0  0  0  0  0  0  0  0  0
   -0.7500   -6.4952    0.0000 C   0  0  0  0  0  0  0  0  0  0  0  0
    0.7500   -6.4952    0.0000 C   0  0  0  0  0  0  0  0  0  0  0  0
    1.5000   -5.1962    0.0000 C   0  0  0  0  0  0  0  0  0  0  0  0
    0.7500   -3.8971    0.0000 C   0  0  0  0  0  0  0  0  0  0  0  0
    1.5000   -2.5981    0.0000 C   0  0  0  0  0  0  0  0  0  0  0  0
    0.7500   -1.2990    0.0000 C   0  0  0  0  0  0  0  0  0  0  0  0
    1.5000    0.0000    0.0000 C   0  0  0  0  0  0  0  0  0  0  0  0
    0.7500    1.2990    0.0000 N   0  0  0  0  0  0  0  0  0  0  0  0
   -0.7500    1.2990    0.0000 C   0  0  0  0  0  0  0  0  0  0  0  0
   -1.5000    0.0000    0.0000 C   0  0  0  0  0  0  0  0  0  0  0  0
   -0.7500   -1.2990    0.0000 N   0  0  0  0  0  0  0  0  0  0  0  0
  1  2  2  0
  2  3  1  0
  3  4  2  0
  4  5  1  0
  4  6  1  0
  6  7  2  0
  7  8  1  0
  8  9  2  0
  9 10  1  0
 11 10  1  1
 11 12  1  0
 12 13  1  0
 13 14  1  0
 14 15  1  0
 15 16  1  0
 16  2  1  0
  9  3  1  0
 16 11  1  0
M  END
>  <assay_chembl_id>  (325) 
CHEMBL2400231

>  <assay_description>  (325) 
Displacement of [125I]LSD from human recombinant 5-HT2B receptor expressed in HEK293E cells after 45 mins by Top counting analysis

>  <parent_molecule_chembl_id>  (325) 
CHEMBL2397893

>  <canonical_smiles>  (325) 
O=C1c2c(Cl)cccc2C[C@@H]2CNCCN12

>  <standard_type>  (325) 
Ki

>  <standard_relation>  (325) 
=

>  <standard_value>  (325) 
8.0

>  <standard_units>  (325) 
nM

>  <target_pref_name>  (325) 
Serotonin 2b (5-HT2b) receptor

>  <target_chembl_id>  (325) 
CHEMBL1833

>  <target_organism>  (325) 
Homo sapiens

>  <pchembl_median>  (325) 
7.7

$$$$
CHEMBL2397892
     RDKit          2D

 19 21  0  0  0  0  0  0  0  0999 V2000
   -3.0000   -2.5981    0.0000 O   0  0  0  0  0  0  0  0  0  0  0  0
   -1.5000   -2.5981    0.0000 C   0  0  0  0  0  0  0  0  0  0  0  0
   -0.7500   -3.8971    0.0000 C   0  0  0  0  0  0  0  0  0  0  0  0
    0.7500   -3.8971    0.0000 C   0  0  0  0  0  0  0  0  0  0  0  0
    1.5000   -5.1962    0.0000 C   0  0  0  0  0  0  0  0  0  0  0  0
    0.7500   -6.4952    0.0000 C   0  0  0  0  0  0  0  0  0  0  0  0
   -0.7500   -6.4952    0.0000 C   0  0  0  0  0  0  0  0  0  0  0  0
   -1.5000   -5.1962    0.0000 C   0  0  0  0  0  0  0  0  0  0  0  0
   -3.0000   -5.1962    0.0000 C   0  0  0  0  0  0  0  0  0  0  0  0
   -4.5000   -5.1962    0.0000 F   0  0  0  0  0  0  0  0  0  0  0  0
   -3.0000   -6.6962    0.0000 F   0  0  0  0  0  0  0  0  0  0  0  0
   -3.0000   -3.6962    0.0000 F   0  0  0  0  0  0  0  0  0  0  0  0
    1.5000   -2.5981    0.0000 C   0  0  0  0  0  0  0  0  0  0  0  0
    0.7500   -1.2990    0.0000 C   0  0  0  0  0  0  0  0  0  0  0  0
    1.5000    0.0000    0.0000 C   0  0  0  0  0  0  0  0  0  0  0  0
    0.7500    1.2990    0.0000 N   0  0  0  0  0  0  0  0  0  0  0  0
   -0.7500    1.2990    0.0000 C   0  0  0  0  0  0  0  0  0  0  0  0
   -1.5000    0.0000    0.0000 C   0  0  0  0  0  0  0  0  0  0  0  0
   -0.7500   -1.2990    0.0000 N   0  0  0  0  0  0  0  0  0  0  0  0
  1  2  2  0
  2  3  1  0
  3  4  2  0
  4  5  1  0
  5  6  2  0
  6  7  1  0
  7  8  2  0
  8  9  1  0
  9 10  1  0
  9 11  1  0
  9 12  1  0
  4 13  1  0
 14 13  1  1
 14 15  1  0
 15 16  1  0
 16 17  1  0
 17 18  1  0
 18 19  1  0
 19  2  1  0
  8  3  1  0
 19 14  1  0
M  END
>  <assay_chembl_id>  (326) 
CHEMBL2400231

>  <assay_description>  (326) 
Displacement of [125I]LSD from human recombinant 5-HT2B receptor expressed in HEK293E cells after 45 mins by Top counting analysis

>  <parent_molecule_chembl_id>  (326) 
CHEMBL2397892

>  <canonical_smiles>  (326) 
O=C1c2c(cccc2C(F)(F)F)C[C@@H]2CNCCN12

>  <standard_type>  (326) 
Ki

>  <standard_relation>  (326) 
=

>  <standard_value>  (326) 
47.0

>  <standard_units>  (326) 
nM

>  <target_pref_name>  (326) 
Serotonin 2b (5-HT2b) receptor

>  <target_chembl_id>  (326) 
CHEMBL1833

>  <target_organism>  (326) 
Homo sapiens

>  <pchembl_median>  (326) 
6.77

$$$$
CHEMBL2397891
     RDKit          2D

 18 21  0  0  0  0  0  0  0  0999 V2000
   -3.0000   -2.5981    0.0000 O   0  0  0  0  0  0  0  0  0  0  0  0
   -1.5000   -2.5981    0.0000 C   0  0  0  0  0  0  0  0  0  0  0  0
   -0.7500   -3.8971    0.0000 C   0  0  0  0  0  0  0  0  0  0  0  0
    0.7500   -3.8971    0.0000 C   0  0  0  0  0  0  0  0  0  0  0  0
    1.5000   -5.1962    0.0000 C   0  0  0  0  0  0  0  0  0  0  0  0
    0.7500   -6.4952    0.0000 C   0  0  0  0  0  0  0  0  0  0  0  0
   -0.7500   -6.4952    0.0000 C   0  0  0  0  0  0  0  0  0  0  0  0
   -1.5000   -5.1962    0.0000 C   0  0  0  0  0  0  0  0  0  0  0  0
   -3.0000   -5.1962    0.0000 C   0  0  0  0  0  0  0  0  0  0  0  0
   -4.2990   -5.9462    0.0000 C   0  0  0  0  0  0  0  0  0  0  0  0
   -4.2990   -4.4462    0.0000 C   0  0  0  0  0  0  0  0  0  0  0  0
    1.5000   -2.5981    0.0000 C   0  0  0  0  0  0  0  0  0  0  0  0
    0.7500   -1.2990    0.0000 C   0  0  0  0  0  0  0  0  0  0  0  0
    1.5000    0.0000    0.0000 C   0  0  0  0  0  0  0  0  0  0  0  0
    0.7500    1.2990    0.0000 N   0  0  0  0  0  0  0  0  0  0  0  0
   -0.7500    1.2990    0.0000 C   0  0  0  0  0  0  0  0  0  0  0  0
   -1.5000    0.0000    0.0000 C   0  0  0  0  0  0  0  0  0  0  0  0
   -0.7500   -1.2990    0.0000 N   0  0  0  0  0  0  0  0  0  0  0  0
  1  2  2  0
  2  3  1  0
  3  4  2  0
  4  5  1  0
  5  6  2  0
  6  7  1  0
  7  8  2  0
  8  9  1  0
  9 10  1  0
 10 11  1  0
  4 12  1  0
 13 12  1  1
 13 14  1  0
 14 15  1  0
 15 16  1  0
 16 17  1  0
 17 18  1  0
 18  2  1  0
  8  3  1  0
 11  9  1  0
 18 13  1  0
M  END
>  <assay_chembl_id>  (327) 
CHEMBL2400231

>  <assay_description>  (327) 
Displacement of [125I]LSD from human recombinant 5-HT2B receptor expressed in HEK293E cells after 45 mins by Top counting analysis

>  <parent_molecule_chembl_id>  (327) 
CHEMBL2397891

>  <canonical_smiles>  (327) 
O=C1c2c(cccc2C2CC2)C[C@@H]2CNCCN12

>  <standard_type>  (327) 
Ki

>  <standard_relation>  (327) 
=

>  <standard_value>  (327) 
6.0

>  <standard_units>  (327) 
nM

>  <target_pref_name>  (327) 
Serotonin 2b (5-HT2b) receptor

>  <target_chembl_id>  (327) 
CHEMBL1833

>  <target_organism>  (327) 
Homo sapiens

>  <pchembl_median>  (327) 
6.19

$$$$
CHEMBL2397890
     RDKit          2D

 17 19  0  0  0  0  0  0  0  0999 V2000
    3.7500   -6.4952    0.0000 C   0  0  0  0  0  0  0  0  0  0  0  0
    3.0000   -5.1962    0.0000 C   0  0  0  0  0  0  0  0  0  0  0  0
    1.5000   -5.1962    0.0000 C   0  0  0  0  0  0  0  0  0  0  0  0
    0.7500   -6.4952    0.0000 C   0  0  0  0  0  0  0  0  0  0  0  0
   -0.7500   -6.4952    0.0000 C   0  0  0  0  0  0  0  0  0  0  0  0
   -1.5000   -5.1962    0.0000 C   0  0  0  0  0  0  0  0  0  0  0  0
   -0.7500   -3.8971    0.0000 C   0  0  0  0  0  0  0  0  0  0  0  0
    0.7500   -3.8971    0.0000 C   0  0  0  0  0  0  0  0  0  0  0  0
    1.5000   -2.5981    0.0000 C   0  0  0  0  0  0  0  0  0  0  0  0
    3.0000   -2.5981    0.0000 O   0  0  0  0  0  0  0  0  0  0  0  0
    0.7500   -1.2990    0.0000 N   0  0  0  0  0  0  0  0  0  0  0  0
    1.5000    0.0000    0.0000 C   0  0  0  0  0  0  0  0  0  0  0  0
    0.7500    1.2990    0.0000 C   0  0  0  0  0  0  0  0  0  0  0  0
   -0.7500    1.2990    0.0000 N   0  0  0  0  0  0  0  0  0  0  0  0
   -1.5000    0.0000    0.0000 C   0  0  0  0  0  0  0  0  0  0  0  0
   -0.7500   -1.2990    0.0000 C   0  0  0  0  0  0  0  0  0  0  0  0
   -1.5000   -2.5981    0.0000 C   0  0  0  0  0  0  0  0  0  0  0  0
  1  2  1  0
  2  3  1  0
  3  4  2  0
  4  5  1  0
  5  6  2  0
  6  7  1  0
  7  8  2  0
  8  9  1  0
  9 10  2  0
  9 11  1  0
 11 12  1  0
 12 13  1  0
 13 14  1  0
 14 15  1  0
 16 15  1  6
 16 17  1  0
  8  3  1  0
 16 11  1  0
 17  7  1  0
M  END
>  <assay_chembl_id>  (328) 
CHEMBL2400231

>  <assay_description>  (328) 
Displacement of [125I]LSD from human recombinant 5-HT2B receptor expressed in HEK293E cells after 45 mins by Top counting analysis

>  <parent_molecule_chembl_id>  (328) 
CHEMBL2397890

>  <canonical_smiles>  (328) 
CCc1cccc2c1C(=O)N1CCNC[C@H]1C2

>  <standard_type>  (328) 
Ki

>  <standard_relation>  (328) 
=

>  <standard_value>  (328) 
2.0

>  <standard_units>  (328) 
nM

>  <target_pref_name>  (328) 
Serotonin 2b (5-HT2b) receptor

>  <target_chembl_id>  (328) 
CHEMBL1833

>  <target_organism>  (328) 
Homo sapiens

>  <pchembl_median>  (328) 
5.39

$$$$
CHEMBL2397889
     RDKit          2D

 16 18  0  0  0  0  0  0  0  0999 V2000
    3.0000   -5.1962    0.0000 C   0  0  0  0  0  0  0  0  0  0  0  0
    1.5000   -5.1962    0.0000 C   0  0  0  0  0  0  0  0  0  0  0  0
    0.7500   -6.4952    0.0000 C   0  0  0  0  0  0  0  0  0  0  0  0
   -0.7500   -6.4952    0.0000 C   0  0  0  0  0  0  0  0  0  0  0  0
   -1.5000   -5.1962    0.0000 C   0  0  0  0  0  0  0  0  0  0  0  0
   -0.7500   -3.8971    0.0000 C   0  0  0  0  0  0  0  0  0  0  0  0
    0.7500   -3.8971    0.0000 C   0  0  0  0  0  0  0  0  0  0  0  0
    1.5000   -2.5981    0.0000 C   0  0  0  0  0  0  0  0  0  0  0  0
    3.0000   -2.5981    0.0000 O   0  0  0  0  0  0  0  0  0  0  0  0
    0.7500   -1.2990    0.0000 N   0  0  0  0  0  0  0  0  0  0  0  0
    1.5000    0.0000    0.0000 C   0  0  0  0  0  0  0  0  0  0  0  0
    0.7500    1.2990    0.0000 C   0  0  0  0  0  0  0  0  0  0  0  0
   -0.7500    1.2990    0.0000 N   0  0  0  0  0  0  0  0  0  0  0  0
   -1.5000    0.0000    0.0000 C   0  0  0  0  0  0  0  0  0  0  0  0
   -0.7500   -1.2990    0.0000 C   0  0  0  0  0  0  0  0  0  0  0  0
   -1.5000   -2.5981    0.0000 C   0  0  0  0  0  0  0  0  0  0  0  0
  1  2  1  0
  2  3  2  0
  3  4  1  0
  4  5  2  0
  5  6  1  0
  6  7  2  0
  7  8  1  0
  8  9  2  0
  8 10  1  0
 10 11  1  0
 11 12  1  0
 12 13  1  0
 13 14  1  0
 15 14  1  6
 15 16  1  0
  7  2  1  0
 15 10  1  0
 16  6  1  0
M  END
>  <assay_chembl_id>  (329) 
CHEMBL2400231

>  <assay_description>  (329) 
Displacement of [125I]LSD from human recombinant 5-HT2B receptor expressed in HEK293E cells after 45 mins by Top counting analysis

>  <parent_molecule_chembl_id>  (329) 
CHEMBL2397889

>  <canonical_smiles>  (329) 
Cc1cccc2c1C(=O)N1CCNC[C@H]1C2

>  <standard_type>  (329) 
Ki

>  <standard_relation>  (329) 
=

>  <standard_value>  (329) 
13.0

>  <standard_units>  (329) 
nM

>  <target_pref_name>  (329) 
Serotonin 2b (5-HT2b) receptor

>  <target_chembl_id>  (329) 
CHEMBL1833

>  <target_organism>  (329) 
Homo sapiens

>  <pchembl_median>  (329) 
5.39

$$$$
CHEMBL2397888
     RDKit          2D

 16 18  0  0  0  0  0  0  0  0999 V2000
    3.0000   -2.5981    0.0000 C   0  0  0  0  0  0  0  0  0  0  0  0
    1.5000   -2.5981    0.0000 C   0  0  0  0  0  0  0  0  0  0  0  0
    0.7500   -1.2990    0.0000 C   0  0  0  0  0  0  0  0  0  0  0  0
    1.5000    0.0000    0.0000 C   0  0  0  0  0  0  0  0  0  0  0  0
    0.7500    1.2990    0.0000 C   0  0  0  0  0  0  0  0  0  0  0  0
   -0.7500    1.2990    0.0000 C   0  0  0  0  0  0  0  0  0  0  0  0
   -1.5000    0.0000    0.0000 C   0  0  0  0  0  0  0  0  0  0  0  0
   -0.7500   -1.2990    0.0000 C   0  0  0  0  0  0  0  0  0  0  0  0
   -1.5000   -2.5981    0.0000 C   0  0  0  0  0  0  0  0  0  0  0  0
   -3.0000   -2.5981    0.0000 O   0  0  0  0  0  0  0  0  0  0  0  0
   -0.7500   -3.8971    0.0000 N   0  0  0  0  0  0  0  0  0  0  0  0
   -1.5000   -5.1962    0.0000 C   0  0  0  0  0  0  0  0  0  0  0  0
   -0.7500   -6.4952    0.0000 C   0  0  0  0  0  0  0  0  0  0  0  0
    0.7500   -6.4952    0.0000 N   0  0  0  0  0  0  0  0  0  0  0  0
    1.5000   -5.1962    0.0000 C   0  0  0  0  0  0  0  0  0  0  0  0
    0.7500   -3.8971    0.0000 C   0  0  0  0  0  0  0  0  0  0  0  0
  2  1  1  1
  2  3  1  0
  3  4  2  0
  4  5  1  0
  5  6  2  0
  6  7  1  0
  7  8  2  0
  8  9  1  0
  9 10  2  0
  9 11  1  0
 11 12  1  0
 12 13  1  0
 13 14  1  0
 14 15  1  0
 16 15  1  6
 16  2  1  0
  8  3  1  0
 16 11  1  0
M  END
>  <assay_chembl_id>  (330) 
CHEMBL2400231

>  <assay_description>  (330) 
Displacement of [125I]LSD from human recombinant 5-HT2B receptor expressed in HEK293E cells after 45 mins by Top counting analysis

>  <parent_molecule_chembl_id>  (330) 
CHEMBL2397888

>  <canonical_smiles>  (330) 
C[C@@H]1c2ccccc2C(=O)N2CCNC[C@@H]12

>  <standard_type>  (330) 
Ki

>  <standard_relation>  (330) 
=

>  <standard_value>  (330) 
402.0

>  <standard_units>  (330) 
nM

>  <target_pref_name>  (330) 
Serotonin 2b (5-HT2b) receptor

>  <target_chembl_id>  (330) 
CHEMBL1833

>  <target_organism>  (330) 
Homo sapiens

>  <pchembl_median>  (330) 
6.1

$$$$
CHEMBL2397887
     RDKit          2D

 16 18  0  0  0  0  0  0  0  0999 V2000
   -3.0000   -5.1962    0.0000 C   0  0  0  0  0  0  0  0  0  0  0  0
   -1.5000   -5.1962    0.0000 C   0  0  0  0  0  0  0  0  0  0  0  0
   -0.7500   -6.4952    0.0000 C   0  0  0  0  0  0  0  0  0  0  0  0
    0.7500   -6.4952    0.0000 N   0  0  0  0  0  0  0  0  0  0  0  0
    1.5000   -5.1962    0.0000 C   0  0  0  0  0  0  0  0  0  0  0  0
    0.7500   -3.8971    0.0000 C   0  0  0  0  0  0  0  0  0  0  0  0
    1.5000   -2.5981    0.0000 C   0  0  0  0  0  0  0  0  0  0  0  0
    0.7500   -1.2990    0.0000 C   0  0  0  0  0  0  0  0  0  0  0  0
    1.5000    0.0000    0.0000 C   0  0  0  0  0  0  0  0  0  0  0  0
    0.7500    1.2990    0.0000 C   0  0  0  0  0  0  0  0  0  0  0  0
   -0.7500    1.2990    0.0000 C   0  0  0  0  0  0  0  0  0  0  0  0
   -1.5000    0.0000    0.0000 C   0  0  0  0  0  0  0  0  0  0  0  0
   -0.7500   -1.2990    0.0000 C   0  0  0  0  0  0  0  0  0  0  0  0
   -1.5000   -2.5981    0.0000 C   0  0  0  0  0  0  0  0  0  0  0  0
   -3.0000   -2.5981    0.0000 O   0  0  0  0  0  0  0  0  0  0  0  0
   -0.7500   -3.8971    0.0000 N   0  0  0  0  0  0  0  0  0  0  0  0
  2  1  1  1
  2  3  1  0
  3  4  1  0
  4  5  1  0
  6  5  1  6
  6  7  1  0
  7  8  1  0
  8  9  2  0
  9 10  1  0
 10 11  2  0
 11 12  1  0
 12 13  2  0
 13 14  1  0
 14 15  2  0
 14 16  1  0
 16  2  1  0
 16  6  1  0
 13  8  1  0
M  END
>  <assay_chembl_id>  (331) 
CHEMBL2400231

>  <assay_description>  (331) 
Displacement of [125I]LSD from human recombinant 5-HT2B receptor expressed in HEK293E cells after 45 mins by Top counting analysis

>  <parent_molecule_chembl_id>  (331) 
CHEMBL2397887

>  <canonical_smiles>  (331) 
C[C@@H]1CNC[C@H]2Cc3ccccc3C(=O)N12

>  <standard_type>  (331) 
Ki

>  <standard_relation>  (331) 
=

>  <standard_value>  (331) 
39.0

>  <standard_units>  (331) 
nM

>  <target_pref_name>  (331) 
Serotonin 2b (5-HT2b) receptor

>  <target_chembl_id>  (331) 
CHEMBL1833

>  <target_organism>  (331) 
Homo sapiens

>  <pchembl_median>  (331) 
6.27

$$$$
CHEMBL2397886
     RDKit          2D

 16 18  0  0  0  0  0  0  0  0999 V2000
   -3.0000   -5.1962    0.0000 C   0  0  0  0  0  0  0  0  0  0  0  0
   -1.5000   -5.1962    0.0000 C   0  0  0  0  0  0  0  0  0  0  0  0
   -0.7500   -6.4952    0.0000 C   0  0  0  0  0  0  0  0  0  0  0  0
    0.7500   -6.4952    0.0000 N   0  0  0  0  0  0  0  0  0  0  0  0
    1.5000   -5.1962    0.0000 C   0  0  0  0  0  0  0  0  0  0  0  0
    0.7500   -3.8971    0.0000 C   0  0  0  0  0  0  0  0  0  0  0  0
    1.5000   -2.5981    0.0000 C   0  0  0  0  0  0  0  0  0  0  0  0
    0.7500   -1.2990    0.0000 C   0  0  0  0  0  0  0  0  0  0  0  0
    1.5000    0.0000    0.0000 C   0  0  0  0  0  0  0  0  0  0  0  0
    0.7500    1.2990    0.0000 C   0  0  0  0  0  0  0  0  0  0  0  0
   -0.7500    1.2990    0.0000 C   0  0  0  0  0  0  0  0  0  0  0  0
   -1.5000    0.0000    0.0000 C   0  0  0  0  0  0  0  0  0  0  0  0
   -0.7500   -1.2990    0.0000 C   0  0  0  0  0  0  0  0  0  0  0  0
   -1.5000   -2.5981    0.0000 C   0  0  0  0  0  0  0  0  0  0  0  0
   -3.0000   -2.5981    0.0000 O   0  0  0  0  0  0  0  0  0  0  0  0
   -0.7500   -3.8971    0.0000 N   0  0  0  0  0  0  0  0  0  0  0  0
  2  1  1  6
  2  3  1  0
  3  4  1  0
  4  5  1  0
  6  5  1  6
  6  7  1  0
  7  8  1  0
  8  9  2  0
  9 10  1  0
 10 11  2  0
 11 12  1  0
 12 13  2  0
 13 14  1  0
 14 15  2  0
 14 16  1  0
 16  2  1  0
 16  6  1  0
 13  8  1  0
M  END
>  <assay_chembl_id>  (332) 
CHEMBL2400231

>  <assay_description>  (332) 
Displacement of [125I]LSD from human recombinant 5-HT2B receptor expressed in HEK293E cells after 45 mins by Top counting analysis

>  <parent_molecule_chembl_id>  (332) 
CHEMBL2397886

>  <canonical_smiles>  (332) 
C[C@H]1CNC[C@H]2Cc3ccccc3C(=O)N12

>  <standard_type>  (332) 
Ki

>  <standard_relation>  (332) 
=

>  <standard_value>  (332) 
1637.0

>  <standard_units>  (332) 
nM

>  <target_pref_name>  (332) 
Serotonin 2b (5-HT2b) receptor

>  <target_chembl_id>  (332) 
CHEMBL1833

>  <target_organism>  (332) 
Homo sapiens

>  <pchembl_median>  (332) 
6.6

$$$$
CHEMBL2397885
     RDKit          2D

 16 18  0  0  0  0  0  0  0  0999 V2000
    1.5000   -7.7942    0.0000 C   0  0  0  0  0  0  0  0  0  0  0  0
    0.7500   -6.4952    0.0000 C   0  0  0  0  0  0  0  0  0  0  0  0
    1.5000   -5.1962    0.0000 C   0  0  0  0  0  0  0  0  0  0  0  0
    0.7500   -3.8971    0.0000 N   0  0  0  0  0  0  0  0  0  0  0  0
    1.5000   -2.5981    0.0000 C   0  0  0  0  0  0  0  0  0  0  0  0
    3.0000   -2.5981    0.0000 O   0  0  0  0  0  0  0  0  0  0  0  0
    0.7500   -1.2990    0.0000 C   0  0  0  0  0  0  0  0  0  0  0  0
    1.5000    0.0000    0.0000 C   0  0  0  0  0  0  0  0  0  0  0  0
    0.7500    1.2990    0.0000 C   0  0  0  0  0  0  0  0  0  0  0  0
   -0.7500    1.2990    0.0000 C   0  0  0  0  0  0  0  0  0  0  0  0
   -1.5000    0.0000    0.0000 C   0  0  0  0  0  0  0  0  0  0  0  0
   -0.7500   -1.2990    0.0000 C   0  0  0  0  0  0  0  0  0  0  0  0
   -1.5000   -2.5981    0.0000 C   0  0  0  0  0  0  0  0  0  0  0  0
   -0.7500   -3.8971    0.0000 C   0  0  0  0  0  0  0  0  0  0  0  0
   -1.5000   -5.1962    0.0000 C   0  0  0  0  0  0  0  0  0  0  0  0
   -0.7500   -6.4952    0.0000 N   0  0  0  0  0  0  0  0  0  0  0  0
  2  1  1  6
  2  3  1  0
  3  4  1  0
  4  5  1  0
  5  6  2  0
  5  7  1  0
  7  8  2  0
  8  9  1  0
  9 10  2  0
 10 11  1  0
 11 12  2  0
 12 13  1  0
 14 13  1  1
 14 15  1  0
 15 16  1  0
 16  2  1  0
 14  4  1  0
 12  7  1  0
M  END
>  <assay_chembl_id>  (333) 
CHEMBL2400231

>  <assay_description>  (333) 
Displacement of [125I]LSD from human recombinant 5-HT2B receptor expressed in HEK293E cells after 45 mins by Top counting analysis

>  <parent_molecule_chembl_id>  (333) 
CHEMBL2397885

>  <canonical_smiles>  (333) 
C[C@H]1CN2C(=O)c3ccccc3C[C@@H]2CN1

>  <standard_type>  (333) 
Ki

>  <standard_relation>  (333) 
=

>  <standard_value>  (333) 
681.0

>  <standard_units>  (333) 
nM

>  <target_pref_name>  (333) 
Serotonin 2b (5-HT2b) receptor

>  <target_chembl_id>  (333) 
CHEMBL1833

>  <target_organism>  (333) 
Homo sapiens

>  <pchembl_median>  (333) 
6.68

$$$$
CHEMBL2396668
     RDKit          2D

 16 18  0  0  0  0  0  0  0  0999 V2000
    1.5000   -7.7942    0.0000 C   0  0  0  0  0  0  0  0  0  0  0  0
    0.7500   -6.4952    0.0000 C   0  0  0  0  0  0  0  0  0  0  0  0
    1.5000   -5.1962    0.0000 C   0  0  0  0  0  0  0  0  0  0  0  0
    0.7500   -3.8971    0.0000 N   0  0  0  0  0  0  0  0  0  0  0  0
    1.5000   -2.5981    0.0000 C   0  0  0  0  0  0  0  0  0  0  0  0
    3.0000   -2.5981    0.0000 O   0  0  0  0  0  0  0  0  0  0  0  0
    0.7500   -1.2990    0.0000 C   0  0  0  0  0  0  0  0  0  0  0  0
    1.5000    0.0000    0.0000 C   0  0  0  0  0  0  0  0  0  0  0  0
    0.7500    1.2990    0.0000 C   0  0  0  0  0  0  0  0  0  0  0  0
   -0.7500    1.2990    0.0000 C   0  0  0  0  0  0  0  0  0  0  0  0
   -1.5000    0.0000    0.0000 C   0  0  0  0  0  0  0  0  0  0  0  0
   -0.7500   -1.2990    0.0000 C   0  0  0  0  0  0  0  0  0  0  0  0
   -1.5000   -2.5981    0.0000 C   0  0  0  0  0  0  0  0  0  0  0  0
   -0.7500   -3.8971    0.0000 C   0  0  0  0  0  0  0  0  0  0  0  0
   -1.5000   -5.1962    0.0000 C   0  0  0  0  0  0  0  0  0  0  0  0
   -0.7500   -6.4952    0.0000 N   0  0  0  0  0  0  0  0  0  0  0  0
  2  1  1  1
  2  3  1  0
  3  4  1  0
  4  5  1  0
  5  6  2  0
  5  7  1  0
  7  8  2  0
  8  9  1  0
  9 10  2  0
 10 11  1  0
 11 12  2  0
 12 13  1  0
 14 13  1  1
 14 15  1  0
 15 16  1  0
 16  2  1  0
 14  4  1  0
 12  7  1  0
M  END
>  <assay_chembl_id>  (334) 
CHEMBL2400231

>  <assay_description>  (334) 
Displacement of [125I]LSD from human recombinant 5-HT2B receptor expressed in HEK293E cells after 45 mins by Top counting analysis

>  <parent_molecule_chembl_id>  (334) 
CHEMBL2396668

>  <canonical_smiles>  (334) 
C[C@@H]1CN2C(=O)c3ccccc3C[C@@H]2CN1

>  <standard_type>  (334) 
Ki

>  <standard_relation>  (334) 
=

>  <standard_value>  (334) 
1340.0

>  <standard_units>  (334) 
nM

>  <target_pref_name>  (334) 
Serotonin 2b (5-HT2b) receptor

>  <target_chembl_id>  (334) 
CHEMBL1833

>  <target_organism>  (334) 
Homo sapiens

>  <pchembl_median>  (334) 
6.7

$$$$
CHEMBL2397884
     RDKit          2D

 16 18  0  0  0  0  0  0  0  0999 V2000
   -1.5000   -7.7942    0.0000 C   0  0  0  0  0  0  0  0  0  0  0  0
   -0.7500   -6.4952    0.0000 N   0  0  0  0  0  0  0  0  0  0  0  0
    0.7500   -6.4952    0.0000 C   0  0  0  0  0  0  0  0  0  0  0  0
    1.5000   -5.1962    0.0000 C   0  0  0  0  0  0  0  0  0  0  0  0
    0.7500   -3.8971    0.0000 N   0  0  0  0  0  0  0  0  0  0  0  0
    1.5000   -2.5981    0.0000 C   0  0  0  0  0  0  0  0  0  0  0  0
    3.0000   -2.5981    0.0000 O   0  0  0  0  0  0  0  0  0  0  0  0
    0.7500   -1.2990    0.0000 C   0  0  0  0  0  0  0  0  0  0  0  0
    1.5000    0.0000    0.0000 C   0  0  0  0  0  0  0  0  0  0  0  0
    0.7500    1.2990    0.0000 C   0  0  0  0  0  0  0  0  0  0  0  0
   -0.7500    1.2990    0.0000 C   0  0  0  0  0  0  0  0  0  0  0  0
   -1.5000    0.0000    0.0000 C   0  0  0  0  0  0  0  0  0  0  0  0
   -0.7500   -1.2990    0.0000 C   0  0  0  0  0  0  0  0  0  0  0  0
   -1.5000   -2.5981    0.0000 C   0  0  0  0  0  0  0  0  0  0  0  0
   -0.7500   -3.8971    0.0000 C   0  0  0  0  0  0  0  0  0  0  0  0
   -1.5000   -5.1962    0.0000 C   0  0  0  0  0  0  0  0  0  0  0  0
  1  2  1  0
  2  3  1  0
  3  4  1  0
  4  5  1  0
  5  6  1  0
  6  7  2  0
  6  8  1  0
  8  9  2  0
  9 10  1  0
 10 11  2  0
 11 12  1  0
 12 13  2  0
 13 14  1  0
 15 14  1  1
 15 16  1  0
 16  2  1  0
 15  5  1  0
 13  8  1  0
M  END
>  <assay_chembl_id>  (335) 
CHEMBL2400231

>  <assay_description>  (335) 
Displacement of [125I]LSD from human recombinant 5-HT2B receptor expressed in HEK293E cells after 45 mins by Top counting analysis

>  <parent_molecule_chembl_id>  (335) 
CHEMBL2397884

>  <canonical_smiles>  (335) 
CN1CCN2C(=O)c3ccccc3C[C@@H]2C1

>  <standard_type>  (335) 
Ki

>  <standard_relation>  (335) 
=

>  <standard_value>  (335) 
488.0

>  <standard_units>  (335) 
nM

>  <target_pref_name>  (335) 
Serotonin 2b (5-HT2b) receptor

>  <target_chembl_id>  (335) 
CHEMBL1833

>  <target_organism>  (335) 
Homo sapiens

>  <pchembl_median>  (335) 
7.14

$$$$
CHEMBL2397883
     RDKit          2D

 16 18  0  0  0  0  0  0  0  0999 V2000
    2.2500   -1.2990    0.0000 C   0  0  0  0  0  0  0  0  0  0  0  0
    0.7500   -1.2990    0.0000 C   0  0  0  0  0  0  0  0  0  0  0  0
    1.5000    0.0000    0.0000 C   0  0  0  0  0  0  0  0  0  0  0  0
    0.7500    1.2990    0.0000 N   0  0  0  0  0  0  0  0  0  0  0  0
   -0.7500    1.2990    0.0000 C   0  0  0  0  0  0  0  0  0  0  0  0
   -1.5000    0.0000    0.0000 C   0  0  0  0  0  0  0  0  0  0  0  0
   -0.7500   -1.2990    0.0000 N   0  0  0  0  0  0  0  0  0  0  0  0
   -1.5000   -2.5981    0.0000 C   0  0  0  0  0  0  0  0  0  0  0  0
   -3.0000   -2.5981    0.0000 O   0  0  0  0  0  0  0  0  0  0  0  0
   -0.7500   -3.8971    0.0000 C   0  0  0  0  0  0  0  0  0  0  0  0
   -1.5000   -5.1962    0.0000 C   0  0  0  0  0  0  0  0  0  0  0  0
   -0.7500   -6.4952    0.0000 C   0  0  0  0  0  0  0  0  0  0  0  0
    0.7500   -6.4952    0.0000 C   0  0  0  0  0  0  0  0  0  0  0  0
    1.5000   -5.1962    0.0000 C   0  0  0  0  0  0  0  0  0  0  0  0
    0.7500   -3.8971    0.0000 C   0  0  0  0  0  0  0  0  0  0  0  0
    1.5000   -2.5981    0.0000 C   0  0  0  0  0  0  0  0  0  0  0  0
  2  1  1  6
  2  3  1  0
  3  4  1  0
  4  5  1  0
  5  6  1  0
  6  7  1  0
  7  8  1  0
  8  9  2  0
  8 10  1  0
 10 11  2  0
 11 12  1  0
 12 13  2  0
 13 14  1  0
 14 15  2  0
 15 16  1  0
  7  2  1  0
 15 10  1  0
 16  2  1  0
M  END
>  <assay_chembl_id>  (336) 
CHEMBL2400231

>  <assay_description>  (336) 
Displacement of [125I]LSD from human recombinant 5-HT2B receptor expressed in HEK293E cells after 45 mins by Top counting analysis

>  <parent_molecule_chembl_id>  (336) 
CHEMBL2397883

>  <canonical_smiles>  (336) 
C[C@@]12CNCCN1C(=O)c1ccccc1C2

>  <standard_type>  (336) 
Ki

>  <standard_relation>  (336) 
=

>  <standard_value>  (336) 
3445.0

>  <standard_units>  (336) 
nM

>  <target_pref_name>  (336) 
Serotonin 2b (5-HT2b) receptor

>  <target_chembl_id>  (336) 
CHEMBL1833

>  <target_organism>  (336) 
Homo sapiens

>  <pchembl_median>  (336) 
7.22

$$$$
CHEMBL2397882
     RDKit          2D

 15 17  0  0  0  0  0  0  0  0999 V2000
    3.0000   -2.5981    0.0000 O   0  0  0  0  0  0  0  0  0  0  0  0
    1.5000   -2.5981    0.0000 C   0  0  0  0  0  0  0  0  0  0  0  0
    0.7500   -1.2990    0.0000 C   0  0  0  0  0  0  0  0  0  0  0  0
    1.5000    0.0000    0.0000 C   0  0  0  0  0  0  0  0  0  0  0  0
    0.7500    1.2990    0.0000 C   0  0  0  0  0  0  0  0  0  0  0  0
   -0.7500    1.2990    0.0000 C   0  0  0  0  0  0  0  0  0  0  0  0
   -1.5000    0.0000    0.0000 C   0  0  0  0  0  0  0  0  0  0  0  0
   -0.7500   -1.2990    0.0000 C   0  0  0  0  0  0  0  0  0  0  0  0
   -1.5000   -2.5981    0.0000 C   0  0  0  0  0  0  0  0  0  0  0  0
   -0.7500   -3.8971    0.0000 C   0  0  0  0  0  0  0  0  0  0  0  0
   -1.5000   -5.1962    0.0000 C   0  0  0  0  0  0  0  0  0  0  0  0
   -0.7500   -6.4952    0.0000 N   0  0  0  0  0  0  0  0  0  0  0  0
    0.7500   -6.4952    0.0000 C   0  0  0  0  0  0  0  0  0  0  0  0
    1.5000   -5.1962    0.0000 C   0  0  0  0  0  0  0  0  0  0  0  0
    0.7500   -3.8971    0.0000 N   0  0  0  0  0  0  0  0  0  0  0  0
  1  2  2  0
  2  3  1  0
  3  4  2  0
  4  5  1  0
  5  6  2  0
  6  7  1  0
  7  8  2  0
  8  9  1  0
 10  9  1  6
 10 11  1  0
 11 12  1  0
 12 13  1  0
 13 14  1  0
 14 15  1  0
 15  2  1  0
  8  3  1  0
 15 10  1  0
M  END
>  <assay_chembl_id>  (337) 
CHEMBL2400231

>  <assay_description>  (337) 
Displacement of [125I]LSD from human recombinant 5-HT2B receptor expressed in HEK293E cells after 45 mins by Top counting analysis

>  <parent_molecule_chembl_id>  (337) 
CHEMBL2397882

>  <canonical_smiles>  (337) 
O=C1c2ccccc2C[C@H]2CNCCN12

>  <standard_type>  (337) 
Ki

>  <standard_relation>  (337) 
=

>  <standard_value>  (337) 
5710.0

>  <standard_units>  (337) 
nM

>  <target_pref_name>  (337) 
Serotonin 2b (5-HT2b) receptor

>  <target_chembl_id>  (337) 
CHEMBL1833

>  <target_organism>  (337) 
Homo sapiens

>  <pchembl_median>  (337) 
8.1

$$$$
CHEMBL2397881
     RDKit          2D

 15 17  0  0  0  0  0  0  0  0999 V2000
    3.0000   -2.5981    0.0000 O   0  0  0  0  0  0  0  0  0  0  0  0
    1.5000   -2.5981    0.0000 C   0  0  0  0  0  0  0  0  0  0  0  0
    0.7500   -1.2990    0.0000 C   0  0  0  0  0  0  0  0  0  0  0  0
    1.5000    0.0000    0.0000 C   0  0  0  0  0  0  0  0  0  0  0  0
    0.7500    1.2990    0.0000 C   0  0  0  0  0  0  0  0  0  0  0  0
   -0.7500    1.2990    0.0000 C   0  0  0  0  0  0  0  0  0  0  0  0
   -1.5000    0.0000    0.0000 C   0  0  0  0  0  0  0  0  0  0  0  0
   -0.7500   -1.2990    0.0000 C   0  0  0  0  0  0  0  0  0  0  0  0
   -1.5000   -2.5981    0.0000 C   0  0  0  0  0  0  0  0  0  0  0  0
   -0.7500   -3.8971    0.0000 C   0  0  0  0  0  0  0  0  0  0  0  0
   -1.5000   -5.1962    0.0000 C   0  0  0  0  0  0  0  0  0  0  0  0
   -0.7500   -6.4952    0.0000 N   0  0  0  0  0  0  0  0  0  0  0  0
    0.7500   -6.4952    0.0000 C   0  0  0  0  0  0  0  0  0  0  0  0
    1.5000   -5.1962    0.0000 C   0  0  0  0  0  0  0  0  0  0  0  0
    0.7500   -3.8971    0.0000 N   0  0  0  0  0  0  0  0  0  0  0  0
  1  2  2  0
  2  3  1  0
  3  4  2  0
  4  5  1  0
  5  6  2  0
  6  7  1  0
  7  8  2  0
  8  9  1  0
 10  9  1  1
 10 11  1  0
 11 12  1  0
 12 13  1  0
 13 14  1  0
 14 15  1  0
 15  2  1  0
  8  3  1  0
 15 10  1  0
M  END
>  <assay_chembl_id>  (338) 
CHEMBL2400231

>  <assay_description>  (338) 
Displacement of [125I]LSD from human recombinant 5-HT2B receptor expressed in HEK293E cells after 45 mins by Top counting analysis

>  <parent_molecule_chembl_id>  (338) 
CHEMBL2397881

>  <canonical_smiles>  (338) 
O=C1c2ccccc2C[C@@H]2CNCCN12

>  <standard_type>  (338) 
Ki

>  <standard_relation>  (338) 
=

>  <standard_value>  (338) 
213.0

>  <standard_units>  (338) 
nM

>  <target_pref_name>  (338) 
Serotonin 2b (5-HT2b) receptor

>  <target_chembl_id>  (338) 
CHEMBL1833

>  <target_organism>  (338) 
Homo sapiens

>  <pchembl_median>  (338) 
7.4

$$$$
CHEMBL2436555
     RDKit          2D

 13 13  0  0  0  0  0  0  0  0999 V2000
    0.0000    2.2990    0.0000 Cl  0  0  0  0  0  0  0  0  0  0  0  0
    3.0000    0.0000    0.0000 N   0  0  0  0  0  0  0  0  0  0  0  0
    1.5000    0.0000    0.0000 C   0  0  0  0  0  0  0  0  0  0  0  0
    0.7500   -1.2990    0.0000 N   0  0  0  0  0  0  0  0  0  0  0  0
   -0.7500   -1.2990    0.0000 C   0  0  0  0  0  0  0  0  0  0  0  0
   -1.5000   -2.5981    0.0000 C   0  0  0  0  0  0  0  0  0  0  0  0
   -3.0000   -2.5981    0.0000 C   0  0  0  0  0  0  0  0  0  0  0  0
   -3.7500   -1.2990    0.0000 C   0  0  0  0  0  0  0  0  0  0  0  0
   -5.2500   -1.2990    0.0000 Cl  0  0  0  0  0  0  0  0  0  0  0  0
   -3.0000    0.0000    0.0000 C   0  0  0  0  0  0  0  0  0  0  0  0
   -1.5000    0.0000    0.0000 C   0  0  0  0  0  0  0  0  0  0  0  0
   -0.7500    1.2990    0.0000 C   0  0  0  0  0  0  0  0  0  0  0  0
    0.7500    1.2990    0.0000 N   0  0  0  0  0  0  0  0  0  0  0  0
  2  3  1  0
  3  4  2  0
  4  5  1  0
  5  6  2  0
  6  7  1  0
  7  8  2  0
  8  9  1  0
  8 10  1  0
 10 11  2  0
 11 12  1  0
 12 13  1  0
 13  3  1  0
 11  5  1  0
M  END
>  <assay_chembl_id>  (339) 
CHEMBL2437597

>  <assay_description>  (339) 
Displacement of [3H]LSD from human recombinant 5-HT2B receptor expressed in HEK cells after 90 mins by scintillation counting analysis

>  <parent_molecule_chembl_id>  (339) 
CHEMBL1188501

>  <canonical_smiles>  (339) 
Cl.NC1=Nc2ccc(Cl)cc2CN1

>  <standard_type>  (339) 
Ki

>  <standard_relation>  (339) 
=

>  <standard_value>  (339) 
562.34

>  <standard_units>  (339) 
nM

>  <target_pref_name>  (339) 
Serotonin 2b (5-HT2b) receptor

>  <target_chembl_id>  (339) 
CHEMBL1833

>  <target_organism>  (339) 
Homo sapiens

>  <pchembl_median>  (339) 
6.15

$$$$
CHEMBL2442265
     RDKit          2D

 19 21  0  0  0  0  0  0  0  0999 V2000
   -4.9684   -9.2292    0.0000 C   0  0  0  0  0  0  0  0  0  0  0  0
   -5.2802   -7.7620    0.0000 N   0  0  0  0  0  0  0  0  0  0  0  0
   -4.1655   -6.7583    0.0000 C   0  0  0  0  0  0  0  0  0  0  0  0
   -4.3223   -5.2665    0.0000 N   0  0  0  0  0  0  0  0  0  0  0  0
   -2.9520   -4.6564    0.0000 C   0  0  0  0  0  0  0  0  0  0  0  0
   -2.6401   -3.1891    0.0000 C   0  0  0  0  0  0  0  0  0  0  0  0
   -1.2135   -2.7256    0.0000 C   0  0  0  0  0  0  0  0  0  0  0  0
    0.0000   -3.6073    0.0000 C   0  0  0  0  0  0  0  0  0  0  0  0
    1.2135   -2.7256    0.0000 N   0  0  0  0  0  0  0  0  0  0  0  0
    0.7500   -1.2990    0.0000 C   0  0  0  0  0  0  0  0  0  0  0  0
    1.5000    0.0000    0.0000 C   0  0  0  0  0  0  0  0  0  0  0  0
    0.7500    1.2990    0.0000 C   0  0  0  0  0  0  0  0  0  0  0  0
   -0.7500    1.2990    0.0000 C   0  0  0  0  0  0  0  0  0  0  0  0
   -1.5000    0.0000    0.0000 C   0  0  0  0  0  0  0  0  0  0  0  0
   -0.7500   -1.2990    0.0000 C   0  0  0  0  0  0  0  0  0  0  0  0
   -1.9483   -5.7711    0.0000 C   0  0  0  0  0  0  0  0  0  0  0  0
   -0.4565   -5.6143    0.0000 O   0  0  0  0  0  0  0  0  0  0  0  0
   -2.6983   -7.0701    0.0000 N   0  0  0  0  0  0  0  0  0  0  0  0
   -2.0882   -8.4404    0.0000 C   0  0  0  0  0  0  0  0  0  0  0  0
  1  2  1  0
  2  3  2  0
  3  4  1  0
  4  5  1  0
  5  6  2  0
  6  7  1  0
  7  8  2  0
  8  9  1  0
  9 10  1  0
 10 11  2  0
 11 12  1  0
 12 13  2  0
 13 14  1  0
 14 15  2  0
  5 16  1  0
 16 17  2  0
 16 18  1  0
 18 19  1  0
 18  3  1  0
 15  7  1  0
 15 10  1  0
M  END
>  <assay_chembl_id>  (340) 
CHEMBL2445946

>  <assay_description>  (340) 
Displacement of [3H]LSD from human recombinant 5HT2B receptor stably expressed in HEK cells

>  <parent_molecule_chembl_id>  (340) 
CHEMBL2442265

>  <canonical_smiles>  (340) 
C/N=C1/N/C(=C/c2c[nH]c3ccccc23)C(=O)N1C

>  <standard_type>  (340) 
Ki

>  <standard_relation>  (340) 
=

>  <standard_value>  (340) 
5055.0

>  <standard_units>  (340) 
nM

>  <target_pref_name>  (340) 
Serotonin 2b (5-HT2b) receptor

>  <target_chembl_id>  (340) 
CHEMBL1833

>  <target_organism>  (340) 
Homo sapiens

>  <pchembl_median>  (340) 
5.22

$$$$
CHEMBL512332
     RDKit          2D

 20 22  0  0  0  0  0  0  0  0999 V2000
   -4.9684   -9.2292    0.0000 C   0  0  0  0  0  0  0  0  0  0  0  0
   -5.2802   -7.7620    0.0000 N   0  0  0  0  0  0  0  0  0  0  0  0
   -4.1655   -6.7583    0.0000 C   0  0  0  0  0  0  0  0  0  0  0  0
   -2.6983   -7.0701    0.0000 N   0  0  0  0  0  0  0  0  0  0  0  0
   -2.0882   -8.4404    0.0000 C   0  0  0  0  0  0  0  0  0  0  0  0
   -1.9483   -5.7711    0.0000 C   0  0  0  0  0  0  0  0  0  0  0  0
   -0.4565   -5.6143    0.0000 O   0  0  0  0  0  0  0  0  0  0  0  0
   -2.9520   -4.6564    0.0000 C   0  0  0  0  0  0  0  0  0  0  0  0
   -2.6401   -3.1891    0.0000 C   0  0  0  0  0  0  0  0  0  0  0  0
   -1.2135   -2.7256    0.0000 C   0  0  0  0  0  0  0  0  0  0  0  0
    0.0000   -3.6073    0.0000 C   0  0  0  0  0  0  0  0  0  0  0  0
    1.2135   -2.7256    0.0000 N   0  0  0  0  0  0  0  0  0  0  0  0
    0.7500   -1.2990    0.0000 C   0  0  0  0  0  0  0  0  0  0  0  0
    1.5000    0.0000    0.0000 C   0  0  0  0  0  0  0  0  0  0  0  0
    0.7500    1.2990    0.0000 C   0  0  0  0  0  0  0  0  0  0  0  0
   -0.7500    1.2990    0.0000 C   0  0  0  0  0  0  0  0  0  0  0  0
   -1.5000    0.0000    0.0000 C   0  0  0  0  0  0  0  0  0  0  0  0
   -0.7500   -1.2990    0.0000 C   0  0  0  0  0  0  0  0  0  0  0  0
   -4.3223   -5.2665    0.0000 N   0  0  0  0  0  0  0  0  0  0  0  0
   -5.6213   -4.5165    0.0000 C   0  0  0  0  0  0  0  0  0  0  0  0
  1  2  1  0
  2  3  2  0
  3  4  1  0
  4  5  1  0
  4  6  1  0
  6  7  2  0
  6  8  1  0
  8  9  2  0
  9 10  1  0
 10 11  2  0
 11 12  1  0
 12 13  1  0
 13 14  2  0
 14 15  1  0
 15 16  2  0
 16 17  1  0
 17 18  2  0
  8 19  1  0
 19 20  1  0
 19  3  1  0
 18 10  1  0
 18 13  1  0
M  END
>  <assay_chembl_id>  (341) 
CHEMBL2445946

>  <assay_description>  (341) 
Displacement of [3H]LSD from human recombinant 5HT2B receptor stably expressed in HEK cells

>  <parent_molecule_chembl_id>  (341) 
CHEMBL512332

>  <canonical_smiles>  (341) 
C/N=C1\N(C)C(=O)/C(=C\c2c[nH]c3ccccc23)N1C

>  <standard_type>  (341) 
Ki

>  <standard_relation>  (341) 
=

>  <standard_value>  (341) 
4554.0

>  <standard_units>  (341) 
nM

>  <target_pref_name>  (341) 
Serotonin 2b (5-HT2b) receptor

>  <target_chembl_id>  (341) 
CHEMBL1833

>  <target_organism>  (341) 
Homo sapiens

>  <pchembl_median>  (341) 
5.9

$$$$
CHEMBL404232
     RDKit          2D

 19 21  0  0  0  0  0  0  0  0999 V2000
   -2.0882   -8.4404    0.0000 C   0  0  0  0  0  0  0  0  0  0  0  0
   -2.6983   -7.0701    0.0000 N   0  0  0  0  0  0  0  0  0  0  0  0
   -4.1655   -6.7583    0.0000 C   0  0  0  0  0  0  0  0  0  0  0  0
   -5.2802   -7.7620    0.0000 N   0  0  0  0  0  0  0  0  0  0  0  0
   -4.3223   -5.2665    0.0000 N   0  0  0  0  0  0  0  0  0  0  0  0
   -5.6213   -4.5165    0.0000 C   0  0  0  0  0  0  0  0  0  0  0  0
   -2.9520   -4.6564    0.0000 C   0  0  0  0  0  0  0  0  0  0  0  0
   -2.6401   -3.1891    0.0000 C   0  0  0  0  0  0  0  0  0  0  0  0
   -1.2135   -2.7256    0.0000 C   0  0  0  0  0  0  0  0  0  0  0  0
    0.0000   -3.6073    0.0000 C   0  0  0  0  0  0  0  0  0  0  0  0
    1.2135   -2.7256    0.0000 N   0  0  0  0  0  0  0  0  0  0  0  0
    0.7500   -1.2990    0.0000 C   0  0  0  0  0  0  0  0  0  0  0  0
    1.5000    0.0000    0.0000 C   0  0  0  0  0  0  0  0  0  0  0  0
    0.7500    1.2990    0.0000 C   0  0  0  0  0  0  0  0  0  0  0  0
   -0.7500    1.2990    0.0000 C   0  0  0  0  0  0  0  0  0  0  0  0
   -1.5000    0.0000    0.0000 C   0  0  0  0  0  0  0  0  0  0  0  0
   -0.7500   -1.2990    0.0000 C   0  0  0  0  0  0  0  0  0  0  0  0
   -1.9483   -5.7711    0.0000 C   0  0  0  0  0  0  0  0  0  0  0  0
   -0.4565   -5.6143    0.0000 O   0  0  0  0  0  0  0  0  0  0  0  0
  1  2  1  0
  2  3  1  0
  3  4  2  0
  3  5  1  0
  5  6  1  0
  5  7  1  0
  7  8  2  0
  8  9  1  0
  9 10  2  0
 10 11  1  0
 11 12  1  0
 12 13  2  0
 13 14  1  0
 14 15  2  0
 15 16  1  0
 16 17  2  0
  7 18  1  0
 18 19  2  0
 18  2  1  0
 17  9  1  0
 17 12  1  0
M  END
>  <assay_chembl_id>  (342) 
CHEMBL2445946

>  <assay_description>  (342) 
Displacement of [3H]LSD from human recombinant 5HT2B receptor stably expressed in HEK cells

>  <parent_molecule_chembl_id>  (342) 
CHEMBL404232

>  <canonical_smiles>  (342) 
CN1C(=N)N(C)/C(=C/c2c[nH]c3ccccc23)C1=O

>  <standard_type>  (342) 
Ki

>  <standard_relation>  (342) 
=

>  <standard_value>  (342) 
4449.0

>  <standard_units>  (342) 
nM

>  <target_pref_name>  (342) 
Serotonin 2b (5-HT2b) receptor

>  <target_chembl_id>  (342) 
CHEMBL1833

>  <target_organism>  (342) 
Homo sapiens

>  <pchembl_median>  (342) 
6.0

$$$$
CHEMBL2058696
     RDKit          2D

 18 20  0  0  0  0  0  0  0  0999 V2000
   -5.6213   -4.5165    0.0000 O   0  0  0  0  0  0  0  0  0  0  0  0
   -4.3223   -5.2665    0.0000 C   0  0  0  0  0  0  0  0  0  0  0  0
   -4.1655   -6.7583    0.0000 N   0  0  0  0  0  0  0  0  0  0  0  0
   -2.6983   -7.0701    0.0000 C   0  0  0  0  0  0  0  0  0  0  0  0
   -2.0882   -8.4404    0.0000 S   0  0  0  0  0  0  0  0  0  0  0  0
   -1.9483   -5.7711    0.0000 N   0  0  0  0  0  0  0  0  0  0  0  0
   -2.9520   -4.6564    0.0000 C   0  0  0  0  0  0  0  0  0  0  0  0
   -2.6401   -3.1891    0.0000 C   0  0  0  0  0  0  0  0  0  0  0  0
   -1.2135   -2.7256    0.0000 C   0  0  0  0  0  0  0  0  0  0  0  0
    0.0000   -3.6073    0.0000 C   0  0  0  0  0  0  0  0  0  0  0  0
    1.2135   -2.7256    0.0000 N   0  0  0  0  0  0  0  0  0  0  0  0
    0.7500   -1.2990    0.0000 C   0  0  0  0  0  0  0  0  0  0  0  0
    1.5000    0.0000    0.0000 C   0  0  0  0  0  0  0  0  0  0  0  0
    0.7500    1.2990    0.0000 C   0  0  0  0  0  0  0  0  0  0  0  0
    1.5000    2.5981    0.0000 Br  0  0  0  0  0  0  0  0  0  0  0  0
   -0.7500    1.2990    0.0000 C   0  0  0  0  0  0  0  0  0  0  0  0
   -1.5000    0.0000    0.0000 C   0  0  0  0  0  0  0  0  0  0  0  0
   -0.7500   -1.2990    0.0000 C   0  0  0  0  0  0  0  0  0  0  0  0
  1  2  2  0
  2  3  1  0
  3  4  1  0
  4  5  2  0
  4  6  1  0
  6  7  1  0
  7  8  2  0
  8  9  1  0
  9 10  2  0
 10 11  1  0
 11 12  1  0
 12 13  2  0
 13 14  1  0
 14 15  1  0
 14 16  2  0
 16 17  1  0
 17 18  2  0
  7  2  1  0
 18  9  1  0
 18 12  1  0
M  END
>  <assay_chembl_id>  (343) 
CHEMBL2445946

>  <assay_description>  (343) 
Displacement of [3H]LSD from human recombinant 5HT2B receptor stably expressed in HEK cells

>  <parent_molecule_chembl_id>  (343) 
CHEMBL2058696

>  <canonical_smiles>  (343) 
O=C1NC(=S)N/C1=C\c1c[nH]c2cc(Br)ccc12

>  <standard_type>  (343) 
Ki

>  <standard_relation>  (343) 
=

>  <standard_value>  (343) 
2714.0

>  <standard_units>  (343) 
nM

>  <target_pref_name>  (343) 
Serotonin 2b (5-HT2b) receptor

>  <target_chembl_id>  (343) 
CHEMBL1833

>  <target_organism>  (343) 
Homo sapiens

>  <pchembl_median>  (343) 
5.7

$$$$
CHEMBL463249
     RDKit          2D

 20 22  0  0  0  0  0  0  0  0999 V2000
   -2.0882   -8.4404    0.0000 C   0  0  0  0  0  0  0  0  0  0  0  0
   -2.6983   -7.0701    0.0000 N   0  0  0  0  0  0  0  0  0  0  0  0
   -4.1655   -6.7583    0.0000 C   0  0  0  0  0  0  0  0  0  0  0  0
   -5.2802   -7.7620    0.0000 N   0  0  0  0  0  0  0  0  0  0  0  0
   -4.3223   -5.2665    0.0000 N   0  0  0  0  0  0  0  0  0  0  0  0
   -5.6213   -4.5165    0.0000 C   0  0  0  0  0  0  0  0  0  0  0  0
   -2.9520   -4.6564    0.0000 C   0  0  0  0  0  0  0  0  0  0  0  0
   -2.6401   -3.1891    0.0000 C   0  0  0  0  0  0  0  0  0  0  0  0
   -1.2135   -2.7256    0.0000 C   0  0  0  0  0  0  0  0  0  0  0  0
    0.0000   -3.6073    0.0000 C   0  0  0  0  0  0  0  0  0  0  0  0
    1.2135   -2.7256    0.0000 N   0  0  0  0  0  0  0  0  0  0  0  0
    0.7500   -1.2990    0.0000 C   0  0  0  0  0  0  0  0  0  0  0  0
    1.5000    0.0000    0.0000 C   0  0  0  0  0  0  0  0  0  0  0  0
    0.7500    1.2990    0.0000 C   0  0  0  0  0  0  0  0  0  0  0  0
    1.5000    2.5981    0.0000 Br  0  0  0  0  0  0  0  0  0  0  0  0
   -0.7500    1.2990    0.0000 C   0  0  0  0  0  0  0  0  0  0  0  0
   -1.5000    0.0000    0.0000 C   0  0  0  0  0  0  0  0  0  0  0  0
   -0.7500   -1.2990    0.0000 C   0  0  0  0  0  0  0  0  0  0  0  0
   -1.9483   -5.7711    0.0000 C   0  0  0  0  0  0  0  0  0  0  0  0
   -0.4565   -5.6143    0.0000 O   0  0  0  0  0  0  0  0  0  0  0  0
  1  2  1  0
  2  3  1  0
  3  4  2  0
  3  5  1  0
  5  6  1  0
  5  7  1  0
  7  8  2  0
  8  9  1  0
  9 10  2  0
 10 11  1  0
 11 12  1  0
 12 13  2  0
 13 14  1  0
 14 15  1  0
 14 16  2  0
 16 17  1  0
 17 18  2  0
  7 19  1  0
 19 20  2  0
 19  2  1  0
 18  9  1  0
 18 12  1  0
M  END
>  <assay_chembl_id>  (344) 
CHEMBL2445946

>  <assay_description>  (344) 
Displacement of [3H]LSD from human recombinant 5HT2B receptor stably expressed in HEK cells

>  <parent_molecule_chembl_id>  (344) 
CHEMBL463249

>  <canonical_smiles>  (344) 
CN1C(=N)N(C)/C(=C/c2c[nH]c3cc(Br)ccc23)C1=O

>  <standard_type>  (344) 
Ki

>  <standard_relation>  (344) 
=

>  <standard_value>  (344) 
2671.0

>  <standard_units>  (344) 
nM

>  <target_pref_name>  (344) 
Serotonin 2b (5-HT2b) receptor

>  <target_chembl_id>  (344) 
CHEMBL1833

>  <target_organism>  (344) 
Homo sapiens

>  <pchembl_median>  (344) 
5.8

$$$$
CHEMBL2058428
     RDKit          2D

 21 23  0  0  0  0  0  0  0  0999 V2000
   -4.9684   -9.2292    0.0000 C   0  0  0  0  0  0  0  0  0  0  0  0
   -5.2802   -7.7620    0.0000 N   0  0  0  0  0  0  0  0  0  0  0  0
   -4.1655   -6.7583    0.0000 C   0  0  0  0  0  0  0  0  0  0  0  0
   -2.6983   -7.0701    0.0000 N   0  0  0  0  0  0  0  0  0  0  0  0
   -2.0882   -8.4404    0.0000 C   0  0  0  0  0  0  0  0  0  0  0  0
   -1.9483   -5.7711    0.0000 C   0  0  0  0  0  0  0  0  0  0  0  0
   -0.4565   -5.6143    0.0000 O   0  0  0  0  0  0  0  0  0  0  0  0
   -2.9520   -4.6564    0.0000 C   0  0  0  0  0  0  0  0  0  0  0  0
   -2.6401   -3.1891    0.0000 C   0  0  0  0  0  0  0  0  0  0  0  0
   -1.2135   -2.7256    0.0000 C   0  0  0  0  0  0  0  0  0  0  0  0
    0.0000   -3.6073    0.0000 C   0  0  0  0  0  0  0  0  0  0  0  0
    1.2135   -2.7256    0.0000 N   0  0  0  0  0  0  0  0  0  0  0  0
    0.7500   -1.2990    0.0000 C   0  0  0  0  0  0  0  0  0  0  0  0
    1.5000    0.0000    0.0000 C   0  0  0  0  0  0  0  0  0  0  0  0
    0.7500    1.2990    0.0000 C   0  0  0  0  0  0  0  0  0  0  0  0
    1.5000    2.5981    0.0000 Br  0  0  0  0  0  0  0  0  0  0  0  0
   -0.7500    1.2990    0.0000 C   0  0  0  0  0  0  0  0  0  0  0  0
   -1.5000    0.0000    0.0000 C   0  0  0  0  0  0  0  0  0  0  0  0
   -0.7500   -1.2990    0.0000 C   0  0  0  0  0  0  0  0  0  0  0  0
   -4.3223   -5.2665    0.0000 N   0  0  0  0  0  0  0  0  0  0  0  0
   -5.6213   -4.5165    0.0000 C   0  0  0  0  0  0  0  0  0  0  0  0
  1  2  1  0
  2  3  2  0
  3  4  1  0
  4  5  1  0
  4  6  1  0
  6  7  2  0
  6  8  1  0
  8  9  2  0
  9 10  1  0
 10 11  2  0
 11 12  1  0
 12 13  1  0
 13 14  2  0
 14 15  1  0
 15 16  1  0
 15 17  2  0
 17 18  1  0
 18 19  2  0
  8 20  1  0
 20 21  1  0
 20  3  1  0
 19 10  1  0
 19 13  1  0
M  END
>  <assay_chembl_id>  (345) 
CHEMBL2445946

>  <assay_description>  (345) 
Displacement of [3H]LSD from human recombinant 5HT2B receptor stably expressed in HEK cells

>  <parent_molecule_chembl_id>  (345) 
CHEMBL2058428

>  <canonical_smiles>  (345) 
C/N=C1\N(C)C(=O)/C(=C\c2c[nH]c3cc(Br)ccc23)N1C

>  <standard_type>  (345) 
Ki

>  <standard_relation>  (345) 
=

>  <standard_value>  (345) 
2468.0

>  <standard_units>  (345) 
nM

>  <target_pref_name>  (345) 
Serotonin 2b (5-HT2b) receptor

>  <target_chembl_id>  (345) 
CHEMBL1833

>  <target_organism>  (345) 
Homo sapiens

>  <pchembl_median>  (345) 
7.02

$$$$
CHEMBL2058695
     RDKit          2D

 18 20  0  0  0  0  0  0  0  0999 V2000
   -5.6213   -4.5165    0.0000 O   0  0  0  0  0  0  0  0  0  0  0  0
   -4.3223   -5.2665    0.0000 C   0  0  0  0  0  0  0  0  0  0  0  0
   -4.1655   -6.7583    0.0000 N   0  0  0  0  0  0  0  0  0  0  0  0
   -2.6983   -7.0701    0.0000 C   0  0  0  0  0  0  0  0  0  0  0  0
   -2.0882   -8.4404    0.0000 S   0  0  0  0  0  0  0  0  0  0  0  0
   -1.9483   -5.7711    0.0000 N   0  0  0  0  0  0  0  0  0  0  0  0
   -2.9520   -4.6564    0.0000 C   0  0  0  0  0  0  0  0  0  0  0  0
   -2.6401   -3.1891    0.0000 C   0  0  0  0  0  0  0  0  0  0  0  0
   -1.2135   -2.7256    0.0000 C   0  0  0  0  0  0  0  0  0  0  0  0
    0.0000   -3.6073    0.0000 C   0  0  0  0  0  0  0  0  0  0  0  0
    1.2135   -2.7256    0.0000 N   0  0  0  0  0  0  0  0  0  0  0  0
    0.7500   -1.2990    0.0000 C   0  0  0  0  0  0  0  0  0  0  0  0
    1.5000    0.0000    0.0000 C   0  0  0  0  0  0  0  0  0  0  0  0
    0.7500    1.2990    0.0000 C   0  0  0  0  0  0  0  0  0  0  0  0
   -0.7500    1.2990    0.0000 C   0  0  0  0  0  0  0  0  0  0  0  0
   -1.5000    2.5981    0.0000 Br  0  0  0  0  0  0  0  0  0  0  0  0
   -1.5000    0.0000    0.0000 C   0  0  0  0  0  0  0  0  0  0  0  0
   -0.7500   -1.2990    0.0000 C   0  0  0  0  0  0  0  0  0  0  0  0
  1  2  2  0
  2  3  1  0
  3  4  1  0
  4  5  2  0
  4  6  1  0
  6  7  1  0
  7  8  2  0
  8  9  1  0
  9 10  2  0
 10 11  1  0
 11 12  1  0
 12 13  2  0
 13 14  1  0
 14 15  2  0
 15 16  1  0
 15 17  1  0
 17 18  2  0
  7  2  1  0
 18  9  1  0
 18 12  1  0
M  END
>  <assay_chembl_id>  (346) 
CHEMBL2445946

>  <assay_description>  (346) 
Displacement of [3H]LSD from human recombinant 5HT2B receptor stably expressed in HEK cells

>  <parent_molecule_chembl_id>  (346) 
CHEMBL2058695

>  <canonical_smiles>  (346) 
O=C1NC(=S)N/C1=C\c1c[nH]c2ccc(Br)cc12

>  <standard_type>  (346) 
Ki

>  <standard_relation>  (346) 
=

>  <standard_value>  (346) 
1676.0

>  <standard_units>  (346) 
nM

>  <target_pref_name>  (346) 
Serotonin 2b (5-HT2b) receptor

>  <target_chembl_id>  (346) 
CHEMBL1833

>  <target_organism>  (346) 
Homo sapiens

>  <pchembl_median>  (346) 
6.68

$$$$
CHEMBL2058427
     RDKit          2D

 21 23  0  0  0  0  0  0  0  0999 V2000
   -4.9684   -9.2292    0.0000 C   0  0  0  0  0  0  0  0  0  0  0  0
   -5.2802   -7.7620    0.0000 N   0  0  0  0  0  0  0  0  0  0  0  0
   -4.1655   -6.7583    0.0000 C   0  0  0  0  0  0  0  0  0  0  0  0
   -2.6983   -7.0701    0.0000 N   0  0  0  0  0  0  0  0  0  0  0  0
   -2.0882   -8.4404    0.0000 C   0  0  0  0  0  0  0  0  0  0  0  0
   -1.9483   -5.7711    0.0000 C   0  0  0  0  0  0  0  0  0  0  0  0
   -0.4565   -5.6143    0.0000 O   0  0  0  0  0  0  0  0  0  0  0  0
   -2.9520   -4.6564    0.0000 C   0  0  0  0  0  0  0  0  0  0  0  0
   -2.6401   -3.1891    0.0000 C   0  0  0  0  0  0  0  0  0  0  0  0
   -1.2135   -2.7256    0.0000 C   0  0  0  0  0  0  0  0  0  0  0  0
    0.0000   -3.6073    0.0000 C   0  0  0  0  0  0  0  0  0  0  0  0
    1.2135   -2.7256    0.0000 N   0  0  0  0  0  0  0  0  0  0  0  0
    0.7500   -1.2990    0.0000 C   0  0  0  0  0  0  0  0  0  0  0  0
    1.5000    0.0000    0.0000 C   0  0  0  0  0  0  0  0  0  0  0  0
    0.7500    1.2990    0.0000 C   0  0  0  0  0  0  0  0  0  0  0  0
   -0.7500    1.2990    0.0000 C   0  0  0  0  0  0  0  0  0  0  0  0
   -1.5000    2.5981    0.0000 Br  0  0  0  0  0  0  0  0  0  0  0  0
   -1.5000    0.0000    0.0000 C   0  0  0  0  0  0  0  0  0  0  0  0
   -0.7500   -1.2990    0.0000 C   0  0  0  0  0  0  0  0  0  0  0  0
   -4.3223   -5.2665    0.0000 N   0  0  0  0  0  0  0  0  0  0  0  0
   -5.6213   -4.5165    0.0000 C   0  0  0  0  0  0  0  0  0  0  0  0
  1  2  1  0
  2  3  2  0
  3  4  1  0
  4  5  1  0
  4  6  1  0
  6  7  2  0
  6  8  1  0
  8  9  2  0
  9 10  1  0
 10 11  2  0
 11 12  1  0
 12 13  1  0
 13 14  2  0
 14 15  1  0
 15 16  2  0
 16 17  1  0
 16 18  1  0
 18 19  2  0
  8 20  1  0
 20 21  1  0
 20  3  1  0
 19 10  1  0
 19 13  1  0
M  END
>  <assay_chembl_id>  (347) 
CHEMBL2445946

>  <assay_description>  (347) 
Displacement of [3H]LSD from human recombinant 5HT2B receptor stably expressed in HEK cells

>  <parent_molecule_chembl_id>  (347) 
CHEMBL2058427

>  <canonical_smiles>  (347) 
C/N=C1\N(C)C(=O)/C(=C\c2c[nH]c3ccc(Br)cc23)N1C

>  <standard_type>  (347) 
Ki

>  <standard_relation>  (347) 
=

>  <standard_value>  (347) 
1620.0

>  <standard_units>  (347) 
nM

>  <target_pref_name>  (347) 
Serotonin 2b (5-HT2b) receptor

>  <target_chembl_id>  (347) 
CHEMBL1833

>  <target_organism>  (347) 
Homo sapiens

>  <pchembl_median>  (347) 
6.51

$$$$
CHEMBL2058409
     RDKit          2D

 19 21  0  0  0  0  0  0  0  0999 V2000
   -5.6213   -4.5165    0.0000 C   0  0  0  0  0  0  0  0  0  0  0  0
   -4.3223   -5.2665    0.0000 N   0  0  0  0  0  0  0  0  0  0  0  0
   -4.1655   -6.7583    0.0000 C   0  0  0  0  0  0  0  0  0  0  0  0
   -5.2802   -7.7620    0.0000 N   0  0  0  0  0  0  0  0  0  0  0  0
   -2.6983   -7.0701    0.0000 N   0  0  0  0  0  0  0  0  0  0  0  0
   -1.9483   -5.7711    0.0000 C   0  0  0  0  0  0  0  0  0  0  0  0
   -0.4565   -5.6143    0.0000 O   0  0  0  0  0  0  0  0  0  0  0  0
   -2.9520   -4.6564    0.0000 C   0  0  0  0  0  0  0  0  0  0  0  0
   -2.6401   -3.1891    0.0000 C   0  0  0  0  0  0  0  0  0  0  0  0
   -1.2135   -2.7256    0.0000 C   0  0  0  0  0  0  0  0  0  0  0  0
    0.0000   -3.6073    0.0000 C   0  0  0  0  0  0  0  0  0  0  0  0
    1.2135   -2.7256    0.0000 N   0  0  0  0  0  0  0  0  0  0  0  0
    0.7500   -1.2990    0.0000 C   0  0  0  0  0  0  0  0  0  0  0  0
    1.5000    0.0000    0.0000 C   0  0  0  0  0  0  0  0  0  0  0  0
    3.0000    0.0000    0.0000 Br  0  0  0  0  0  0  0  0  0  0  0  0
    0.7500    1.2990    0.0000 C   0  0  0  0  0  0  0  0  0  0  0  0
   -0.7500    1.2990    0.0000 C   0  0  0  0  0  0  0  0  0  0  0  0
   -1.5000    0.0000    0.0000 C   0  0  0  0  0  0  0  0  0  0  0  0
   -0.7500   -1.2990    0.0000 C   0  0  0  0  0  0  0  0  0  0  0  0
  1  2  1  0
  2  3  1  0
  3  4  2  0
  3  5  1  0
  5  6  1  0
  6  7  2  0
  6  8  1  0
  8  9  2  0
  9 10  1  0
 10 11  2  0
 11 12  1  0
 12 13  1  0
 13 14  2  0
 14 15  1  0
 14 16  1  0
 16 17  2  0
 17 18  1  0
 18 19  2  0
  8  2  1  0
 19 10  1  0
 19 13  1  0
M  END
>  <assay_chembl_id>  (348) 
CHEMBL2445946

>  <assay_description>  (348) 
Displacement of [3H]LSD from human recombinant 5HT2B receptor stably expressed in HEK cells

>  <parent_molecule_chembl_id>  (348) 
CHEMBL2058409

>  <canonical_smiles>  (348) 
CN1C(=N)NC(=O)/C1=C\c1c[nH]c2c(Br)cccc12

>  <standard_type>  (348) 
Ki

>  <standard_relation>  (348) 
=

>  <standard_value>  (348) 
1422.0

>  <standard_units>  (348) 
nM

>  <target_pref_name>  (348) 
Serotonin 2b (5-HT2b) receptor

>  <target_chembl_id>  (348) 
CHEMBL1833

>  <target_organism>  (348) 
Homo sapiens

>  <pchembl_median>  (348) 
6.22

$$$$
CHEMBL2058408
     RDKit          2D

 19 21  0  0  0  0  0  0  0  0999 V2000
   -5.6213   -4.5165    0.0000 C   0  0  0  0  0  0  0  0  0  0  0  0
   -4.3223   -5.2665    0.0000 N   0  0  0  0  0  0  0  0  0  0  0  0
   -4.1655   -6.7583    0.0000 C   0  0  0  0  0  0  0  0  0  0  0  0
   -5.2802   -7.7620    0.0000 N   0  0  0  0  0  0  0  0  0  0  0  0
   -2.6983   -7.0701    0.0000 N   0  0  0  0  0  0  0  0  0  0  0  0
   -1.9483   -5.7711    0.0000 C   0  0  0  0  0  0  0  0  0  0  0  0
   -0.4565   -5.6143    0.0000 O   0  0  0  0  0  0  0  0  0  0  0  0
   -2.9520   -4.6564    0.0000 C   0  0  0  0  0  0  0  0  0  0  0  0
   -2.6401   -3.1891    0.0000 C   0  0  0  0  0  0  0  0  0  0  0  0
   -1.2135   -2.7256    0.0000 C   0  0  0  0  0  0  0  0  0  0  0  0
    0.0000   -3.6073    0.0000 C   0  0  0  0  0  0  0  0  0  0  0  0
    1.2135   -2.7256    0.0000 N   0  0  0  0  0  0  0  0  0  0  0  0
    0.7500   -1.2990    0.0000 C   0  0  0  0  0  0  0  0  0  0  0  0
    1.5000    0.0000    0.0000 C   0  0  0  0  0  0  0  0  0  0  0  0
    0.7500    1.2990    0.0000 C   0  0  0  0  0  0  0  0  0  0  0  0
    1.5000    2.5981    0.0000 Br  0  0  0  0  0  0  0  0  0  0  0  0
   -0.7500    1.2990    0.0000 C   0  0  0  0  0  0  0  0  0  0  0  0
   -1.5000    0.0000    0.0000 C   0  0  0  0  0  0  0  0  0  0  0  0
   -0.7500   -1.2990    0.0000 C   0  0  0  0  0  0  0  0  0  0  0  0
  1  2  1  0
  2  3  1  0
  3  4  2  0
  3  5  1  0
  5  6  1  0
  6  7  2  0
  6  8  1  0
  8  9  2  0
  9 10  1  0
 10 11  2  0
 11 12  1  0
 12 13  1  0
 13 14  2  0
 14 15  1  0
 15 16  1  0
 15 17  2  0
 17 18  1  0
 18 19  2  0
  8  2  1  0
 19 10  1  0
 19 13  1  0
M  END
>  <assay_chembl_id>  (349) 
CHEMBL2445946

>  <assay_description>  (349) 
Displacement of [3H]LSD from human recombinant 5HT2B receptor stably expressed in HEK cells

>  <parent_molecule_chembl_id>  (349) 
CHEMBL2058408

>  <canonical_smiles>  (349) 
CN1C(=N)NC(=O)/C1=C\c1c[nH]c2cc(Br)ccc12

>  <standard_type>  (349) 
Ki

>  <standard_relation>  (349) 
=

>  <standard_value>  (349) 
1378.0

>  <standard_units>  (349) 
nM

>  <target_pref_name>  (349) 
Serotonin 2b (5-HT2b) receptor

>  <target_chembl_id>  (349) 
CHEMBL1833

>  <target_organism>  (349) 
Homo sapiens

>  <pchembl_median>  (349) 
6.18

$$$$
CHEMBL2058699
     RDKit          2D

 19 21  0  0  0  0  0  0  0  0999 V2000
   -2.9699   -9.6540    0.0000 C   0  0  0  0  0  0  0  0  0  0  0  0
   -2.0882   -8.4404    0.0000 S   0  0  0  0  0  0  0  0  0  0  0  0
   -2.6983   -7.0701    0.0000 C   0  0  0  0  0  0  0  0  0  0  0  0
   -4.1655   -6.7583    0.0000 N   0  0  0  0  0  0  0  0  0  0  0  0
   -4.3223   -5.2665    0.0000 C   0  0  0  0  0  0  0  0  0  0  0  0
   -5.6213   -4.5165    0.0000 O   0  0  0  0  0  0  0  0  0  0  0  0
   -2.9520   -4.6564    0.0000 C   0  0  0  0  0  0  0  0  0  0  0  0
   -2.6401   -3.1891    0.0000 C   0  0  0  0  0  0  0  0  0  0  0  0
   -1.2135   -2.7256    0.0000 C   0  0  0  0  0  0  0  0  0  0  0  0
    0.0000   -3.6073    0.0000 C   0  0  0  0  0  0  0  0  0  0  0  0
    1.2135   -2.7256    0.0000 N   0  0  0  0  0  0  0  0  0  0  0  0
    0.7500   -1.2990    0.0000 C   0  0  0  0  0  0  0  0  0  0  0  0
    1.5000    0.0000    0.0000 C   0  0  0  0  0  0  0  0  0  0  0  0
    0.7500    1.2990    0.0000 C   0  0  0  0  0  0  0  0  0  0  0  0
   -0.7500    1.2990    0.0000 C   0  0  0  0  0  0  0  0  0  0  0  0
   -1.5000    2.5981    0.0000 Br  0  0  0  0  0  0  0  0  0  0  0  0
   -1.5000    0.0000    0.0000 C   0  0  0  0  0  0  0  0  0  0  0  0
   -0.7500   -1.2990    0.0000 C   0  0  0  0  0  0  0  0  0  0  0  0
   -1.9483   -5.7711    0.0000 N   0  0  0  0  0  0  0  0  0  0  0  0
  1  2  1  0
  2  3  1  0
  3  4  2  0
  4  5  1  0
  5  6  2  0
  5  7  1  0
  7  8  2  0
  8  9  1  0
  9 10  2  0
 10 11  1  0
 11 12  1  0
 12 13  2  0
 13 14  1  0
 14 15  2  0
 15 16  1  0
 15 17  1  0
 17 18  2  0
  7 19  1  0
 19  3  1  0
 18  9  1  0
 18 12  1  0
M  END
>  <assay_chembl_id>  (350) 
CHEMBL2445946

>  <assay_description>  (350) 
Displacement of [3H]LSD from human recombinant 5HT2B receptor stably expressed in HEK cells

>  <parent_molecule_chembl_id>  (350) 
CHEMBL2058699

>  <canonical_smiles>  (350) 
CSC1=NC(=O)/C(=C/c2c[nH]c3ccc(Br)cc23)N1

>  <standard_type>  (350) 
Ki

>  <standard_relation>  (350) 
=

>  <standard_value>  (350) 
1346.0

>  <standard_units>  (350) 
nM

>  <target_pref_name>  (350) 
Serotonin 2b (5-HT2b) receptor

>  <target_chembl_id>  (350) 
CHEMBL1833

>  <target_organism>  (350) 
Homo sapiens

>  <pchembl_median>  (350) 
6.52

$$$$
CHEMBL513803
     RDKit          2D

 18 20  0  0  0  0  0  0  0  0999 V2000
   -2.0882   -8.4404    0.0000 C   0  0  0  0  0  0  0  0  0  0  0  0
   -2.6983   -7.0701    0.0000 N   0  0  0  0  0  0  0  0  0  0  0  0
   -4.1655   -6.7583    0.0000 C   0  0  0  0  0  0  0  0  0  0  0  0
   -5.2802   -7.7620    0.0000 N   0  0  0  0  0  0  0  0  0  0  0  0
   -4.3223   -5.2665    0.0000 N   0  0  0  0  0  0  0  0  0  0  0  0
   -2.9520   -4.6564    0.0000 C   0  0  0  0  0  0  0  0  0  0  0  0
   -2.6401   -3.1891    0.0000 C   0  0  0  0  0  0  0  0  0  0  0  0
   -1.2135   -2.7256    0.0000 C   0  0  0  0  0  0  0  0  0  0  0  0
    0.0000   -3.6073    0.0000 C   0  0  0  0  0  0  0  0  0  0  0  0
    1.2135   -2.7256    0.0000 N   0  0  0  0  0  0  0  0  0  0  0  0
    0.7500   -1.2990    0.0000 C   0  0  0  0  0  0  0  0  0  0  0  0
    1.5000    0.0000    0.0000 C   0  0  0  0  0  0  0  0  0  0  0  0
    0.7500    1.2990    0.0000 C   0  0  0  0  0  0  0  0  0  0  0  0
   -0.7500    1.2990    0.0000 C   0  0  0  0  0  0  0  0  0  0  0  0
   -1.5000    0.0000    0.0000 C   0  0  0  0  0  0  0  0  0  0  0  0
   -0.7500   -1.2990    0.0000 C   0  0  0  0  0  0  0  0  0  0  0  0
   -1.9483   -5.7711    0.0000 C   0  0  0  0  0  0  0  0  0  0  0  0
   -0.4565   -5.6143    0.0000 O   0  0  0  0  0  0  0  0  0  0  0  0
  1  2  1  0
  2  3  1  0
  3  4  2  0
  3  5  1  0
  5  6  1  0
  6  7  2  0
  7  8  1  0
  8  9  2  0
  9 10  1  0
 10 11  1  0
 11 12  2  0
 12 13  1  0
 13 14  2  0
 14 15  1  0
 15 16  2  0
  6 17  1  0
 17 18  2  0
 17  2  1  0
 16  8  1  0
 16 11  1  0
M  END
>  <assay_chembl_id>  (351) 
CHEMBL2445946

>  <assay_description>  (351) 
Displacement of [3H]LSD from human recombinant 5HT2B receptor stably expressed in HEK cells

>  <parent_molecule_chembl_id>  (351) 
CHEMBL513803

>  <canonical_smiles>  (351) 
CN1C(=N)N/C(=C/c2c[nH]c3ccccc23)C1=O

>  <standard_type>  (351) 
Ki

>  <standard_relation>  (351) 
=

>  <standard_value>  (351) 
1284.0

>  <standard_units>  (351) 
nM

>  <target_pref_name>  (351) 
Serotonin 2b (5-HT2b) receptor

>  <target_chembl_id>  (351) 
CHEMBL1833

>  <target_organism>  (351) 
Homo sapiens

>  <pchembl_median>  (351) 
6.38

$$$$
CHEMBL2442268
     RDKit          2D

 20 22  0  0  0  0  0  0  0  0999 V2000
   -4.9684   -9.2292    0.0000 C   0  0  0  0  0  0  0  0  0  0  0  0
   -5.2802   -7.7620    0.0000 N   0  0  0  0  0  0  0  0  0  0  0  0
   -4.1655   -6.7583    0.0000 C   0  0  0  0  0  0  0  0  0  0  0  0
   -4.3223   -5.2665    0.0000 N   0  0  0  0  0  0  0  0  0  0  0  0
   -2.9520   -4.6564    0.0000 C   0  0  0  0  0  0  0  0  0  0  0  0
   -2.6401   -3.1891    0.0000 C   0  0  0  0  0  0  0  0  0  0  0  0
   -1.2135   -2.7256    0.0000 C   0  0  0  0  0  0  0  0  0  0  0  0
    0.0000   -3.6073    0.0000 C   0  0  0  0  0  0  0  0  0  0  0  0
    1.2135   -2.7256    0.0000 N   0  0  0  0  0  0  0  0  0  0  0  0
    0.7500   -1.2990    0.0000 C   0  0  0  0  0  0  0  0  0  0  0  0
    1.5000    0.0000    0.0000 C   0  0  0  0  0  0  0  0  0  0  0  0
    0.7500    1.2990    0.0000 C   0  0  0  0  0  0  0  0  0  0  0  0
    1.5000    2.5981    0.0000 Br  0  0  0  0  0  0  0  0  0  0  0  0
   -0.7500    1.2990    0.0000 C   0  0  0  0  0  0  0  0  0  0  0  0
   -1.5000    0.0000    0.0000 C   0  0  0  0  0  0  0  0  0  0  0  0
   -0.7500   -1.2990    0.0000 C   0  0  0  0  0  0  0  0  0  0  0  0
   -1.9483   -5.7711    0.0000 C   0  0  0  0  0  0  0  0  0  0  0  0
   -0.4565   -5.6143    0.0000 O   0  0  0  0  0  0  0  0  0  0  0  0
   -2.6983   -7.0701    0.0000 N   0  0  0  0  0  0  0  0  0  0  0  0
   -2.0882   -8.4404    0.0000 C   0  0  0  0  0  0  0  0  0  0  0  0
  1  2  1  0
  2  3  2  0
  3  4  1  0
  4  5  1  0
  5  6  2  0
  6  7  1  0
  7  8  2  0
  8  9  1  0
  9 10  1  0
 10 11  2  0
 11 12  1  0
 12 13  1  0
 12 14  2  0
 14 15  1  0
 15 16  2  0
  5 17  1  0
 17 18  2  0
 17 19  1  0
 19 20  1  0
 19  3  1  0
 16  7  1  0
 16 10  1  0
M  END
>  <assay_chembl_id>  (352) 
CHEMBL2445946

>  <assay_description>  (352) 
Displacement of [3H]LSD from human recombinant 5HT2B receptor stably expressed in HEK cells

>  <parent_molecule_chembl_id>  (352) 
CHEMBL2442268

>  <canonical_smiles>  (352) 
C/N=C1/N/C(=C/c2c[nH]c3cc(Br)ccc23)C(=O)N1C

>  <standard_type>  (352) 
Ki

>  <standard_relation>  (352) 
=

>  <standard_value>  (352) 
1274.0

>  <standard_units>  (352) 
nM

>  <target_pref_name>  (352) 
Serotonin 2b (5-HT2b) receptor

>  <target_chembl_id>  (352) 
CHEMBL1833

>  <target_organism>  (352) 
Homo sapiens

>  <pchembl_median>  (352) 
6.15

$$$$
CHEMBL1170237
     RDKit          2D

 20 22  0  0  0  0  0  0  0  0999 V2000
   -2.0882   -8.4404    0.0000 C   0  0  0  0  0  0  0  0  0  0  0  0
   -2.6983   -7.0701    0.0000 N   0  0  0  0  0  0  0  0  0  0  0  0
   -4.1655   -6.7583    0.0000 C   0  0  0  0  0  0  0  0  0  0  0  0
   -5.2802   -7.7620    0.0000 N   0  0  0  0  0  0  0  0  0  0  0  0
   -4.3223   -5.2665    0.0000 N   0  0  0  0  0  0  0  0  0  0  0  0
   -5.6213   -4.5165    0.0000 C   0  0  0  0  0  0  0  0  0  0  0  0
   -2.9520   -4.6564    0.0000 C   0  0  0  0  0  0  0  0  0  0  0  0
   -2.6401   -3.1891    0.0000 C   0  0  0  0  0  0  0  0  0  0  0  0
   -1.2135   -2.7256    0.0000 C   0  0  0  0  0  0  0  0  0  0  0  0
    0.0000   -3.6073    0.0000 C   0  0  0  0  0  0  0  0  0  0  0  0
    1.2135   -2.7256    0.0000 N   0  0  0  0  0  0  0  0  0  0  0  0
    0.7500   -1.2990    0.0000 C   0  0  0  0  0  0  0  0  0  0  0  0
    1.5000    0.0000    0.0000 C   0  0  0  0  0  0  0  0  0  0  0  0
    0.7500    1.2990    0.0000 C   0  0  0  0  0  0  0  0  0  0  0  0
   -0.7500    1.2990    0.0000 C   0  0  0  0  0  0  0  0  0  0  0  0
   -1.5000    2.5981    0.0000 Br  0  0  0  0  0  0  0  0  0  0  0  0
   -1.5000    0.0000    0.0000 C   0  0  0  0  0  0  0  0  0  0  0  0
   -0.7500   -1.2990    0.0000 C   0  0  0  0  0  0  0  0  0  0  0  0
   -1.9483   -5.7711    0.0000 C   0  0  0  0  0  0  0  0  0  0  0  0
   -0.4565   -5.6143    0.0000 O   0  0  0  0  0  0  0  0  0  0  0  0
  1  2  1  0
  2  3  1  0
  3  4  2  0
  3  5  1  0
  5  6  1  0
  5  7  1  0
  7  8  2  0
  8  9  1  0
  9 10  2  0
 10 11  1  0
 11 12  1  0
 12 13  2  0
 13 14  1  0
 14 15  2  0
 15 16  1  0
 15 17  1  0
 17 18  2  0
  7 19  1  0
 19 20  2  0
 19  2  1  0
 18  9  1  0
 18 12  1  0
M  END
>  <assay_chembl_id>  (353) 
CHEMBL2445946

>  <assay_description>  (353) 
Displacement of [3H]LSD from human recombinant 5HT2B receptor stably expressed in HEK cells

>  <parent_molecule_chembl_id>  (353) 
CHEMBL1170237

>  <canonical_smiles>  (353) 
CN1C(=N)N(C)/C(=C/c2c[nH]c3ccc(Br)cc23)C1=O

>  <standard_type>  (353) 
Ki

>  <standard_relation>  (353) 
=

>  <standard_value>  (353) 
1248.0

>  <standard_units>  (353) 
nM

>  <target_pref_name>  (353) 
Serotonin 2b (5-HT2b) receptor

>  <target_chembl_id>  (353) 
CHEMBL1833

>  <target_organism>  (353) 
Homo sapiens

>  <pchembl_median>  (353) 
6.38

$$$$
CHEMBL2058700
     RDKit          2D

 19 21  0  0  0  0  0  0  0  0999 V2000
   -2.9699   -9.6540    0.0000 C   0  0  0  0  0  0  0  0  0  0  0  0
   -2.0882   -8.4404    0.0000 S   0  0  0  0  0  0  0  0  0  0  0  0
   -2.6983   -7.0701    0.0000 C   0  0  0  0  0  0  0  0  0  0  0  0
   -4.1655   -6.7583    0.0000 N   0  0  0  0  0  0  0  0  0  0  0  0
   -4.3223   -5.2665    0.0000 C   0  0  0  0  0  0  0  0  0  0  0  0
   -5.6213   -4.5165    0.0000 O   0  0  0  0  0  0  0  0  0  0  0  0
   -2.9520   -4.6564    0.0000 C   0  0  0  0  0  0  0  0  0  0  0  0
   -2.6401   -3.1891    0.0000 C   0  0  0  0  0  0  0  0  0  0  0  0
   -1.2135   -2.7256    0.0000 C   0  0  0  0  0  0  0  0  0  0  0  0
    0.0000   -3.6073    0.0000 C   0  0  0  0  0  0  0  0  0  0  0  0
    1.2135   -2.7256    0.0000 N   0  0  0  0  0  0  0  0  0  0  0  0
    0.7500   -1.2990    0.0000 C   0  0  0  0  0  0  0  0  0  0  0  0
    1.5000    0.0000    0.0000 C   0  0  0  0  0  0  0  0  0  0  0  0
    0.7500    1.2990    0.0000 C   0  0  0  0  0  0  0  0  0  0  0  0
    1.5000    2.5981    0.0000 Br  0  0  0  0  0  0  0  0  0  0  0  0
   -0.7500    1.2990    0.0000 C   0  0  0  0  0  0  0  0  0  0  0  0
   -1.5000    0.0000    0.0000 C   0  0  0  0  0  0  0  0  0  0  0  0
   -0.7500   -1.2990    0.0000 C   0  0  0  0  0  0  0  0  0  0  0  0
   -1.9483   -5.7711    0.0000 N   0  0  0  0  0  0  0  0  0  0  0  0
  1  2  1  0
  2  3  1  0
  3  4  2  0
  4  5  1  0
  5  6  2  0
  5  7  1  0
  7  8  2  0
  8  9  1  0
  9 10  2  0
 10 11  1  0
 11 12  1  0
 12 13  2  0
 13 14  1  0
 14 15  1  0
 14 16  2  0
 16 17  1  0
 17 18  2  0
  7 19  1  0
 19  3  1  0
 18  9  1  0
 18 12  1  0
M  END
>  <assay_chembl_id>  (354) 
CHEMBL2445946

>  <assay_description>  (354) 
Displacement of [3H]LSD from human recombinant 5HT2B receptor stably expressed in HEK cells

>  <parent_molecule_chembl_id>  (354) 
CHEMBL2058700

>  <canonical_smiles>  (354) 
CSC1=NC(=O)/C(=C/c2c[nH]c3cc(Br)ccc23)N1

>  <standard_type>  (354) 
Ki

>  <standard_relation>  (354) 
=

>  <standard_value>  (354) 
1136.0

>  <standard_units>  (354) 
nM

>  <target_pref_name>  (354) 
Serotonin 2b (5-HT2b) receptor

>  <target_chembl_id>  (354) 
CHEMBL1833

>  <target_organism>  (354) 
Homo sapiens

>  <pchembl_median>  (354) 
5.84

$$$$
CHEMBL2058701
     RDKit          2D

 19 21  0  0  0  0  0  0  0  0999 V2000
   -2.9699   -9.6540    0.0000 C   0  0  0  0  0  0  0  0  0  0  0  0
   -2.0882   -8.4404    0.0000 S   0  0  0  0  0  0  0  0  0  0  0  0
   -2.6983   -7.0701    0.0000 C   0  0  0  0  0  0  0  0  0  0  0  0
   -4.1655   -6.7583    0.0000 N   0  0  0  0  0  0  0  0  0  0  0  0
   -4.3223   -5.2665    0.0000 C   0  0  0  0  0  0  0  0  0  0  0  0
   -5.6213   -4.5165    0.0000 O   0  0  0  0  0  0  0  0  0  0  0  0
   -2.9520   -4.6564    0.0000 C   0  0  0  0  0  0  0  0  0  0  0  0
   -2.6401   -3.1891    0.0000 C   0  0  0  0  0  0  0  0  0  0  0  0
   -1.2135   -2.7256    0.0000 C   0  0  0  0  0  0  0  0  0  0  0  0
    0.0000   -3.6073    0.0000 C   0  0  0  0  0  0  0  0  0  0  0  0
    1.2135   -2.7256    0.0000 N   0  0  0  0  0  0  0  0  0  0  0  0
    0.7500   -1.2990    0.0000 C   0  0  0  0  0  0  0  0  0  0  0  0
    1.5000    0.0000    0.0000 C   0  0  0  0  0  0  0  0  0  0  0  0
    3.0000    0.0000    0.0000 Br  0  0  0  0  0  0  0  0  0  0  0  0
    0.7500    1.2990    0.0000 C   0  0  0  0  0  0  0  0  0  0  0  0
   -0.7500    1.2990    0.0000 C   0  0  0  0  0  0  0  0  0  0  0  0
   -1.5000    0.0000    0.0000 C   0  0  0  0  0  0  0  0  0  0  0  0
   -0.7500   -1.2990    0.0000 C   0  0  0  0  0  0  0  0  0  0  0  0
   -1.9483   -5.7711    0.0000 N   0  0  0  0  0  0  0  0  0  0  0  0
  1  2  1  0
  2  3  1  0
  3  4  2  0
  4  5  1  0
  5  6  2  0
  5  7  1  0
  7  8  2  0
  8  9  1  0
  9 10  2  0
 10 11  1  0
 11 12  1  0
 12 13  2  0
 13 14  1  0
 13 15  1  0
 15 16  2  0
 16 17  1  0
 17 18  2  0
  7 19  1  0
 19  3  1  0
 18  9  1  0
 18 12  1  0
M  END
>  <assay_chembl_id>  (355) 
CHEMBL2445946

>  <assay_description>  (355) 
Displacement of [3H]LSD from human recombinant 5HT2B receptor stably expressed in HEK cells

>  <parent_molecule_chembl_id>  (355) 
CHEMBL2058701

>  <canonical_smiles>  (355) 
CSC1=NC(=O)/C(=C/c2c[nH]c3c(Br)cccc23)N1

>  <standard_type>  (355) 
Ki

>  <standard_relation>  (355) 
=

>  <standard_value>  (355) 
993.0

>  <standard_units>  (355) 
nM

>  <target_pref_name>  (355) 
Serotonin 2b (5-HT2b) receptor

>  <target_chembl_id>  (355) 
CHEMBL1833

>  <target_organism>  (355) 
Homo sapiens

>  <pchembl_median>  (355) 
7.96

$$$$
CHEMBL2058429
     RDKit          2D

 21 23  0  0  0  0  0  0  0  0999 V2000
   -4.9684   -9.2292    0.0000 C   0  0  0  0  0  0  0  0  0  0  0  0
   -5.2802   -7.7620    0.0000 N   0  0  0  0  0  0  0  0  0  0  0  0
   -4.1655   -6.7583    0.0000 C   0  0  0  0  0  0  0  0  0  0  0  0
   -2.6983   -7.0701    0.0000 N   0  0  0  0  0  0  0  0  0  0  0  0
   -2.0882   -8.4404    0.0000 C   0  0  0  0  0  0  0  0  0  0  0  0
   -1.9483   -5.7711    0.0000 C   0  0  0  0  0  0  0  0  0  0  0  0
   -0.4565   -5.6143    0.0000 O   0  0  0  0  0  0  0  0  0  0  0  0
   -2.9520   -4.6564    0.0000 C   0  0  0  0  0  0  0  0  0  0  0  0
   -2.6401   -3.1891    0.0000 C   0  0  0  0  0  0  0  0  0  0  0  0
   -1.2135   -2.7256    0.0000 C   0  0  0  0  0  0  0  0  0  0  0  0
    0.0000   -3.6073    0.0000 C   0  0  0  0  0  0  0  0  0  0  0  0
    1.2135   -2.7256    0.0000 N   0  0  0  0  0  0  0  0  0  0  0  0
    0.7500   -1.2990    0.0000 C   0  0  0  0  0  0  0  0  0  0  0  0
    1.5000    0.0000    0.0000 C   0  0  0  0  0  0  0  0  0  0  0  0
    3.0000    0.0000    0.0000 Br  0  0  0  0  0  0  0  0  0  0  0  0
    0.7500    1.2990    0.0000 C   0  0  0  0  0  0  0  0  0  0  0  0
   -0.7500    1.2990    0.0000 C   0  0  0  0  0  0  0  0  0  0  0  0
   -1.5000    0.0000    0.0000 C   0  0  0  0  0  0  0  0  0  0  0  0
   -0.7500   -1.2990    0.0000 C   0  0  0  0  0  0  0  0  0  0  0  0
   -4.3223   -5.2665    0.0000 N   0  0  0  0  0  0  0  0  0  0  0  0
   -5.6213   -4.5165    0.0000 C   0  0  0  0  0  0  0  0  0  0  0  0
  1  2  1  0
  2  3  2  0
  3  4  1  0
  4  5  1  0
  4  6  1  0
  6  7  2  0
  6  8  1  0
  8  9  2  0
  9 10  1  0
 10 11  2  0
 11 12  1  0
 12 13  1  0
 13 14  2  0
 14 15  1  0
 14 16  1  0
 16 17  2  0
 17 18  1  0
 18 19  2  0
  8 20  1  0
 20 21  1  0
 20  3  1  0
 19 10  1  0
 19 13  1  0
M  END
>  <assay_chembl_id>  (356) 
CHEMBL2445946

>  <assay_description>  (356) 
Displacement of [3H]LSD from human recombinant 5HT2B receptor stably expressed in HEK cells

>  <parent_molecule_chembl_id>  (356) 
CHEMBL2058429

>  <canonical_smiles>  (356) 
C/N=C1\N(C)C(=O)/C(=C\c2c[nH]c3c(Br)cccc23)N1C

>  <standard_type>  (356) 
Ki

>  <standard_relation>  (356) 
=

>  <standard_value>  (356) 
965.0

>  <standard_units>  (356) 
nM

>  <target_pref_name>  (356) 
Serotonin 2b (5-HT2b) receptor

>  <target_chembl_id>  (356) 
CHEMBL1833

>  <target_organism>  (356) 
Homo sapiens

>  <pchembl_median>  (356) 
5.6

$$$$
CHEMBL1173525
     RDKit          2D

 18 20  0  0  0  0  0  0  0  0999 V2000
   -5.6213   -4.5165    0.0000 C   0  0  0  0  0  0  0  0  0  0  0  0
   -4.3223   -5.2665    0.0000 N   0  0  0  0  0  0  0  0  0  0  0  0
   -4.1655   -6.7583    0.0000 C   0  0  0  0  0  0  0  0  0  0  0  0
   -5.2802   -7.7620    0.0000 N   0  0  0  0  0  0  0  0  0  0  0  0
   -2.6983   -7.0701    0.0000 N   0  0  0  0  0  0  0  0  0  0  0  0
   -1.9483   -5.7711    0.0000 C   0  0  0  0  0  0  0  0  0  0  0  0
   -0.4565   -5.6143    0.0000 O   0  0  0  0  0  0  0  0  0  0  0  0
   -2.9520   -4.6564    0.0000 C   0  0  0  0  0  0  0  0  0  0  0  0
   -2.6401   -3.1891    0.0000 C   0  0  0  0  0  0  0  0  0  0  0  0
   -1.2135   -2.7256    0.0000 C   0  0  0  0  0  0  0  0  0  0  0  0
    0.0000   -3.6073    0.0000 C   0  0  0  0  0  0  0  0  0  0  0  0
    1.2135   -2.7256    0.0000 N   0  0  0  0  0  0  0  0  0  0  0  0
    0.7500   -1.2990    0.0000 C   0  0  0  0  0  0  0  0  0  0  0  0
    1.5000    0.0000    0.0000 C   0  0  0  0  0  0  0  0  0  0  0  0
    0.7500    1.2990    0.0000 C   0  0  0  0  0  0  0  0  0  0  0  0
   -0.7500    1.2990    0.0000 C   0  0  0  0  0  0  0  0  0  0  0  0
   -1.5000    0.0000    0.0000 C   0  0  0  0  0  0  0  0  0  0  0  0
   -0.7500   -1.2990    0.0000 C   0  0  0  0  0  0  0  0  0  0  0  0
  1  2  1  0
  2  3  1  0
  3  4  2  0
  3  5  1  0
  5  6  1  0
  6  7  2  0
  6  8  1  0
  8  9  2  0
  9 10  1  0
 10 11  2  0
 11 12  1  0
 12 13  1  0
 13 14  2  0
 14 15  1  0
 15 16  2  0
 16 17  1  0
 17 18  2  0
  8  2  1  0
 18 10  1  0
 18 13  1  0
M  END
>  <assay_chembl_id>  (357) 
CHEMBL2445946

>  <assay_description>  (357) 
Displacement of [3H]LSD from human recombinant 5HT2B receptor stably expressed in HEK cells

>  <parent_molecule_chembl_id>  (357) 
CHEMBL1173525

>  <canonical_smiles>  (357) 
CN1C(=N)NC(=O)/C1=C\c1c[nH]c2ccccc12

>  <standard_type>  (357) 
Ki

>  <standard_relation>  (357) 
=

>  <standard_value>  (357) 
964.0

>  <standard_units>  (357) 
nM

>  <target_pref_name>  (357) 
Serotonin 2b (5-HT2b) receptor

>  <target_chembl_id>  (357) 
CHEMBL1833

>  <target_organism>  (357) 
Homo sapiens

>  <pchembl_median>  (357) 
6.12

$$$$
CHEMBL2058426
     RDKit          2D

 21 23  0  0  0  0  0  0  0  0999 V2000
   -4.9684   -9.2292    0.0000 C   0  0  0  0  0  0  0  0  0  0  0  0
   -5.2802   -7.7620    0.0000 N   0  0  0  0  0  0  0  0  0  0  0  0
   -4.1655   -6.7583    0.0000 C   0  0  0  0  0  0  0  0  0  0  0  0
   -2.6983   -7.0701    0.0000 N   0  0  0  0  0  0  0  0  0  0  0  0
   -2.0882   -8.4404    0.0000 C   0  0  0  0  0  0  0  0  0  0  0  0
   -1.9483   -5.7711    0.0000 C   0  0  0  0  0  0  0  0  0  0  0  0
   -0.4565   -5.6143    0.0000 O   0  0  0  0  0  0  0  0  0  0  0  0
   -2.9520   -4.6564    0.0000 C   0  0  0  0  0  0  0  0  0  0  0  0
   -2.6401   -3.1891    0.0000 C   0  0  0  0  0  0  0  0  0  0  0  0
   -1.2135   -2.7256    0.0000 C   0  0  0  0  0  0  0  0  0  0  0  0
    0.0000   -3.6073    0.0000 C   0  0  0  0  0  0  0  0  0  0  0  0
    1.2135   -2.7256    0.0000 N   0  0  0  0  0  0  0  0  0  0  0  0
    0.7500   -1.2990    0.0000 C   0  0  0  0  0  0  0  0  0  0  0  0
    1.5000    0.0000    0.0000 C   0  0  0  0  0  0  0  0  0  0  0  0
    0.7500    1.2990    0.0000 C   0  0  0  0  0  0  0  0  0  0  0  0
   -0.7500    1.2990    0.0000 C   0  0  0  0  0  0  0  0  0  0  0  0
   -1.5000    0.0000    0.0000 C   0  0  0  0  0  0  0  0  0  0  0  0
   -3.0000    0.0000    0.0000 Br  0  0  0  0  0  0  0  0  0  0  0  0
   -0.7500   -1.2990    0.0000 C   0  0  0  0  0  0  0  0  0  0  0  0
   -4.3223   -5.2665    0.0000 N   0  0  0  0  0  0  0  0  0  0  0  0
   -5.6213   -4.5165    0.0000 C   0  0  0  0  0  0  0  0  0  0  0  0
  1  2  1  0
  2  3  2  0
  3  4  1  0
  4  5  1  0
  4  6  1  0
  6  7  2  0
  6  8  1  0
  8  9  2  0
  9 10  1  0
 10 11  2  0
 11 12  1  0
 12 13  1  0
 13 14  2  0
 14 15  1  0
 15 16  2  0
 16 17  1  0
 17 18  1  0
 17 19  2  0
  8 20  1  0
 20 21  1  0
 20  3  1  0
 19 10  1  0
 19 13  1  0
M  END
>  <assay_chembl_id>  (358) 
CHEMBL2445946

>  <assay_description>  (358) 
Displacement of [3H]LSD from human recombinant 5HT2B receptor stably expressed in HEK cells

>  <parent_molecule_chembl_id>  (358) 
CHEMBL2058426

>  <canonical_smiles>  (358) 
C/N=C1\N(C)C(=O)/C(=C\c2c[nH]c3cccc(Br)c23)N1C

>  <standard_type>  (358) 
Ki

>  <standard_relation>  (358) 
=

>  <standard_value>  (358) 
897.0

>  <standard_units>  (358) 
nM

>  <target_pref_name>  (358) 
Serotonin 2b (5-HT2b) receptor

>  <target_chembl_id>  (358) 
CHEMBL1833

>  <target_organism>  (358) 
Homo sapiens

>  <pchembl_median>  (358) 
6.6

$$$$
CHEMBL2058416
     RDKit          2D

 20 22  0  0  0  0  0  0  0  0999 V2000
   -4.9684   -9.2292    0.0000 C   0  0  0  0  0  0  0  0  0  0  0  0
   -5.2802   -7.7620    0.0000 N   0  0  0  0  0  0  0  0  0  0  0  0
   -4.1655   -6.7583    0.0000 C   0  0  0  0  0  0  0  0  0  0  0  0
   -2.6983   -7.0701    0.0000 N   0  0  0  0  0  0  0  0  0  0  0  0
   -1.9483   -5.7711    0.0000 C   0  0  0  0  0  0  0  0  0  0  0  0
   -0.4565   -5.6143    0.0000 O   0  0  0  0  0  0  0  0  0  0  0  0
   -2.9520   -4.6564    0.0000 C   0  0  0  0  0  0  0  0  0  0  0  0
   -2.6401   -3.1891    0.0000 C   0  0  0  0  0  0  0  0  0  0  0  0
   -1.2135   -2.7256    0.0000 C   0  0  0  0  0  0  0  0  0  0  0  0
    0.0000   -3.6073    0.0000 C   0  0  0  0  0  0  0  0  0  0  0  0
    1.2135   -2.7256    0.0000 N   0  0  0  0  0  0  0  0  0  0  0  0
    0.7500   -1.2990    0.0000 C   0  0  0  0  0  0  0  0  0  0  0  0
    1.5000    0.0000    0.0000 C   0  0  0  0  0  0  0  0  0  0  0  0
    0.7500    1.2990    0.0000 C   0  0  0  0  0  0  0  0  0  0  0  0
   -0.7500    1.2990    0.0000 C   0  0  0  0  0  0  0  0  0  0  0  0
   -1.5000    2.5981    0.0000 Br  0  0  0  0  0  0  0  0  0  0  0  0
   -1.5000    0.0000    0.0000 C   0  0  0  0  0  0  0  0  0  0  0  0
   -0.7500   -1.2990    0.0000 C   0  0  0  0  0  0  0  0  0  0  0  0
   -4.3223   -5.2665    0.0000 N   0  0  0  0  0  0  0  0  0  0  0  0
   -5.6213   -4.5165    0.0000 C   0  0  0  0  0  0  0  0  0  0  0  0
  1  2  1  0
  2  3  2  0
  3  4  1  0
  4  5  1  0
  5  6  2  0
  5  7  1  0
  7  8  2  0
  8  9  1  0
  9 10  2  0
 10 11  1  0
 11 12  1  0
 12 13  2  0
 13 14  1  0
 14 15  2  0
 15 16  1  0
 15 17  1  0
 17 18  2  0
  7 19  1  0
 19 20  1  0
 19  3  1  0
 18  9  1  0
 18 12  1  0
M  END
>  <assay_chembl_id>  (359) 
CHEMBL2445946

>  <assay_description>  (359) 
Displacement of [3H]LSD from human recombinant 5HT2B receptor stably expressed in HEK cells

>  <parent_molecule_chembl_id>  (359) 
CHEMBL2058416

>  <canonical_smiles>  (359) 
C/N=C1\NC(=O)/C(=C\c2c[nH]c3ccc(Br)cc23)N1C

>  <standard_type>  (359) 
Ki

>  <standard_relation>  (359) 
=

>  <standard_value>  (359) 
883.0

>  <standard_units>  (359) 
nM

>  <target_pref_name>  (359) 
Serotonin 2b (5-HT2b) receptor

>  <target_chembl_id>  (359) 
CHEMBL1833

>  <target_organism>  (359) 
Homo sapiens

>  <pchembl_median>  (359) 
6.37

$$$$
CHEMBL1173331
     RDKit          2D

 19 21  0  0  0  0  0  0  0  0999 V2000
   -5.6213   -4.5165    0.0000 C   0  0  0  0  0  0  0  0  0  0  0  0
   -4.3223   -5.2665    0.0000 N   0  0  0  0  0  0  0  0  0  0  0  0
   -4.1655   -6.7583    0.0000 C   0  0  0  0  0  0  0  0  0  0  0  0
   -5.2802   -7.7620    0.0000 N   0  0  0  0  0  0  0  0  0  0  0  0
   -2.6983   -7.0701    0.0000 N   0  0  0  0  0  0  0  0  0  0  0  0
   -1.9483   -5.7711    0.0000 C   0  0  0  0  0  0  0  0  0  0  0  0
   -0.4565   -5.6143    0.0000 O   0  0  0  0  0  0  0  0  0  0  0  0
   -2.9520   -4.6564    0.0000 C   0  0  0  0  0  0  0  0  0  0  0  0
   -2.6401   -3.1891    0.0000 C   0  0  0  0  0  0  0  0  0  0  0  0
   -1.2135   -2.7256    0.0000 C   0  0  0  0  0  0  0  0  0  0  0  0
    0.0000   -3.6073    0.0000 C   0  0  0  0  0  0  0  0  0  0  0  0
    1.2135   -2.7256    0.0000 N   0  0  0  0  0  0  0  0  0  0  0  0
    0.7500   -1.2990    0.0000 C   0  0  0  0  0  0  0  0  0  0  0  0
    1.5000    0.0000    0.0000 C   0  0  0  0  0  0  0  0  0  0  0  0
    0.7500    1.2990    0.0000 C   0  0  0  0  0  0  0  0  0  0  0  0
   -0.7500    1.2990    0.0000 C   0  0  0  0  0  0  0  0  0  0  0  0
   -1.5000    2.5981    0.0000 Br  0  0  0  0  0  0  0  0  0  0  0  0
   -1.5000    0.0000    0.0000 C   0  0  0  0  0  0  0  0  0  0  0  0
   -0.7500   -1.2990    0.0000 C   0  0  0  0  0  0  0  0  0  0  0  0
  1  2  1  0
  2  3  1  0
  3  4  2  0
  3  5  1  0
  5  6  1  0
  6  7  2  0
  6  8  1  0
  8  9  2  0
  9 10  1  0
 10 11  2  0
 11 12  1  0
 12 13  1  0
 13 14  2  0
 14 15  1  0
 15 16  2  0
 16 17  1  0
 16 18  1  0
 18 19  2  0
  8  2  1  0
 19 10  1  0
 19 13  1  0
M  END
>  <assay_chembl_id>  (360) 
CHEMBL2445946

>  <assay_description>  (360) 
Displacement of [3H]LSD from human recombinant 5HT2B receptor stably expressed in HEK cells

>  <parent_molecule_chembl_id>  (360) 
CHEMBL1173331

>  <canonical_smiles>  (360) 
CN1C(=N)NC(=O)/C1=C\c1c[nH]c2ccc(Br)cc12

>  <standard_type>  (360) 
Ki

>  <standard_relation>  (360) 
=

>  <standard_value>  (360) 
852.0

>  <standard_units>  (360) 
nM

>  <target_pref_name>  (360) 
Serotonin 2b (5-HT2b) receptor

>  <target_chembl_id>  (360) 
CHEMBL1833

>  <target_organism>  (360) 
Homo sapiens

>  <pchembl_median>  (360) 
7.17

$$$$
CHEMBL2442269
     RDKit          2D

 20 22  0  0  0  0  0  0  0  0999 V2000
   -4.9684   -9.2292    0.0000 C   0  0  0  0  0  0  0  0  0  0  0  0
   -5.2802   -7.7620    0.0000 N   0  0  0  0  0  0  0  0  0  0  0  0
   -4.1655   -6.7583    0.0000 C   0  0  0  0  0  0  0  0  0  0  0  0
   -4.3223   -5.2665    0.0000 N   0  0  0  0  0  0  0  0  0  0  0  0
   -2.9520   -4.6564    0.0000 C   0  0  0  0  0  0  0  0  0  0  0  0
   -2.6401   -3.1891    0.0000 C   0  0  0  0  0  0  0  0  0  0  0  0
   -1.2135   -2.7256    0.0000 C   0  0  0  0  0  0  0  0  0  0  0  0
    0.0000   -3.6073    0.0000 C   0  0  0  0  0  0  0  0  0  0  0  0
    1.2135   -2.7256    0.0000 N   0  0  0  0  0  0  0  0  0  0  0  0
    0.7500   -1.2990    0.0000 C   0  0  0  0  0  0  0  0  0  0  0  0
    1.5000    0.0000    0.0000 C   0  0  0  0  0  0  0  0  0  0  0  0
    3.0000    0.0000    0.0000 Br  0  0  0  0  0  0  0  0  0  0  0  0
    0.7500    1.2990    0.0000 C   0  0  0  0  0  0  0  0  0  0  0  0
   -0.7500    1.2990    0.0000 C   0  0  0  0  0  0  0  0  0  0  0  0
   -1.5000    0.0000    0.0000 C   0  0  0  0  0  0  0  0  0  0  0  0
   -0.7500   -1.2990    0.0000 C   0  0  0  0  0  0  0  0  0  0  0  0
   -1.9483   -5.7711    0.0000 C   0  0  0  0  0  0  0  0  0  0  0  0
   -0.4565   -5.6143    0.0000 O   0  0  0  0  0  0  0  0  0  0  0  0
   -2.6983   -7.0701    0.0000 N   0  0  0  0  0  0  0  0  0  0  0  0
   -2.0882   -8.4404    0.0000 C   0  0  0  0  0  0  0  0  0  0  0  0
  1  2  1  0
  2  3  2  0
  3  4  1  0
  4  5  1  0
  5  6  2  0
  6  7  1  0
  7  8  2  0
  8  9  1  0
  9 10  1  0
 10 11  2  0
 11 12  1  0
 11 13  1  0
 13 14  2  0
 14 15  1  0
 15 16  2  0
  5 17  1  0
 17 18  2  0
 17 19  1  0
 19 20  1  0
 19  3  1  0
 16  7  1  0
 16 10  1  0
M  END
>  <assay_chembl_id>  (361) 
CHEMBL2445946

>  <assay_description>  (361) 
Displacement of [3H]LSD from human recombinant 5HT2B receptor stably expressed in HEK cells

>  <parent_molecule_chembl_id>  (361) 
CHEMBL2442269

>  <canonical_smiles>  (361) 
C/N=C1/N/C(=C/c2c[nH]c3c(Br)cccc23)C(=O)N1C

>  <standard_type>  (361) 
Ki

>  <standard_relation>  (361) 
=

>  <standard_value>  (361) 
839.0

>  <standard_units>  (361) 
nM

>  <target_pref_name>  (361) 
Serotonin 2b (5-HT2b) receptor

>  <target_chembl_id>  (361) 
CHEMBL1833

>  <target_organism>  (361) 
Homo sapiens

>  <pchembl_median>  (361) 
6.61

$$$$
CHEMBL2058407
     RDKit          2D

 19 21  0  0  0  0  0  0  0  0999 V2000
   -5.6213   -4.5165    0.0000 C   0  0  0  0  0  0  0  0  0  0  0  0
   -4.3223   -5.2665    0.0000 N   0  0  0  0  0  0  0  0  0  0  0  0
   -4.1655   -6.7583    0.0000 C   0  0  0  0  0  0  0  0  0  0  0  0
   -5.2802   -7.7620    0.0000 N   0  0  0  0  0  0  0  0  0  0  0  0
   -2.6983   -7.0701    0.0000 N   0  0  0  0  0  0  0  0  0  0  0  0
   -1.9483   -5.7711    0.0000 C   0  0  0  0  0  0  0  0  0  0  0  0
   -0.4565   -5.6143    0.0000 O   0  0  0  0  0  0  0  0  0  0  0  0
   -2.9520   -4.6564    0.0000 C   0  0  0  0  0  0  0  0  0  0  0  0
   -2.6401   -3.1891    0.0000 C   0  0  0  0  0  0  0  0  0  0  0  0
   -1.2135   -2.7256    0.0000 C   0  0  0  0  0  0  0  0  0  0  0  0
    0.0000   -3.6073    0.0000 C   0  0  0  0  0  0  0  0  0  0  0  0
    1.2135   -2.7256    0.0000 N   0  0  0  0  0  0  0  0  0  0  0  0
    0.7500   -1.2990    0.0000 C   0  0  0  0  0  0  0  0  0  0  0  0
    1.5000    0.0000    0.0000 C   0  0  0  0  0  0  0  0  0  0  0  0
    0.7500    1.2990    0.0000 C   0  0  0  0  0  0  0  0  0  0  0  0
   -0.7500    1.2990    0.0000 C   0  0  0  0  0  0  0  0  0  0  0  0
   -1.5000    0.0000    0.0000 C   0  0  0  0  0  0  0  0  0  0  0  0
   -3.0000    0.0000    0.0000 Br  0  0  0  0  0  0  0  0  0  0  0  0
   -0.7500   -1.2990    0.0000 C   0  0  0  0  0  0  0  0  0  0  0  0
  1  2  1  0
  2  3  1  0
  3  4  2  0
  3  5  1  0
  5  6  1  0
  6  7  2  0
  6  8  1  0
  8  9  2  0
  9 10  1  0
 10 11  2  0
 11 12  1  0
 12 13  1  0
 13 14  2  0
 14 15  1  0
 15 16  2  0
 16 17  1  0
 17 18  1  0
 17 19  2  0
  8  2  1  0
 19 10  1  0
 19 13  1  0
M  END
>  <assay_chembl_id>  (362) 
CHEMBL2445946

>  <assay_description>  (362) 
Displacement of [3H]LSD from human recombinant 5HT2B receptor stably expressed in HEK cells

>  <parent_molecule_chembl_id>  (362) 
CHEMBL2058407

>  <canonical_smiles>  (362) 
CN1C(=N)NC(=O)/C1=C\c1c[nH]c2cccc(Br)c12

>  <standard_type>  (362) 
Ki

>  <standard_relation>  (362) 
=

>  <standard_value>  (362) 
784.0

>  <standard_units>  (362) 
nM

>  <target_pref_name>  (362) 
Serotonin 2b (5-HT2b) receptor

>  <target_chembl_id>  (362) 
CHEMBL1833

>  <target_organism>  (362) 
Homo sapiens

>  <pchembl_median>  (362) 
5.91

$$$$
CHEMBL2058698
     RDKit          2D

 19 21  0  0  0  0  0  0  0  0999 V2000
   -2.9699   -9.6540    0.0000 C   0  0  0  0  0  0  0  0  0  0  0  0
   -2.0882   -8.4404    0.0000 S   0  0  0  0  0  0  0  0  0  0  0  0
   -2.6983   -7.0701    0.0000 C   0  0  0  0  0  0  0  0  0  0  0  0
   -4.1655   -6.7583    0.0000 N   0  0  0  0  0  0  0  0  0  0  0  0
   -4.3223   -5.2665    0.0000 C   0  0  0  0  0  0  0  0  0  0  0  0
   -5.6213   -4.5165    0.0000 O   0  0  0  0  0  0  0  0  0  0  0  0
   -2.9520   -4.6564    0.0000 C   0  0  0  0  0  0  0  0  0  0  0  0
   -2.6401   -3.1891    0.0000 C   0  0  0  0  0  0  0  0  0  0  0  0
   -1.2135   -2.7256    0.0000 C   0  0  0  0  0  0  0  0  0  0  0  0
    0.0000   -3.6073    0.0000 C   0  0  0  0  0  0  0  0  0  0  0  0
    1.2135   -2.7256    0.0000 N   0  0  0  0  0  0  0  0  0  0  0  0
    0.7500   -1.2990    0.0000 C   0  0  0  0  0  0  0  0  0  0  0  0
    1.5000    0.0000    0.0000 C   0  0  0  0  0  0  0  0  0  0  0  0
    0.7500    1.2990    0.0000 C   0  0  0  0  0  0  0  0  0  0  0  0
   -0.7500    1.2990    0.0000 C   0  0  0  0  0  0  0  0  0  0  0  0
   -1.5000    0.0000    0.0000 C   0  0  0  0  0  0  0  0  0  0  0  0
   -3.0000    0.0000    0.0000 Br  0  0  0  0  0  0  0  0  0  0  0  0
   -0.7500   -1.2990    0.0000 C   0  0  0  0  0  0  0  0  0  0  0  0
   -1.9483   -5.7711    0.0000 N   0  0  0  0  0  0  0  0  0  0  0  0
  1  2  1  0
  2  3  1  0
  3  4  2  0
  4  5  1  0
  5  6  2  0
  5  7  1  0
  7  8  2  0
  8  9  1  0
  9 10  2  0
 10 11  1  0
 11 12  1  0
 12 13  2  0
 13 14  1  0
 14 15  2  0
 15 16  1  0
 16 17  1  0
 16 18  2  0
  7 19  1  0
 19  3  1  0
 18  9  1  0
 18 12  1  0
M  END
>  <assay_chembl_id>  (363) 
CHEMBL2445946

>  <assay_description>  (363) 
Displacement of [3H]LSD from human recombinant 5HT2B receptor stably expressed in HEK cells

>  <parent_molecule_chembl_id>  (363) 
CHEMBL2058698

>  <canonical_smiles>  (363) 
CSC1=NC(=O)/C(=C/c2c[nH]c3cccc(Br)c23)N1

>  <standard_type>  (363) 
Ki

>  <standard_relation>  (363) 
=

>  <standard_value>  (363) 
780.0

>  <standard_units>  (363) 
nM

>  <target_pref_name>  (363) 
Serotonin 2b (5-HT2b) receptor

>  <target_chembl_id>  (363) 
CHEMBL1833

>  <target_organism>  (363) 
Homo sapiens

>  <pchembl_median>  (363) 
6.8

$$$$
CHEMBL2442266
     RDKit          2D

 20 22  0  0  0  0  0  0  0  0999 V2000
   -4.9684   -9.2292    0.0000 C   0  0  0  0  0  0  0  0  0  0  0  0
   -5.2802   -7.7620    0.0000 N   0  0  0  0  0  0  0  0  0  0  0  0
   -4.1655   -6.7583    0.0000 C   0  0  0  0  0  0  0  0  0  0  0  0
   -4.3223   -5.2665    0.0000 N   0  0  0  0  0  0  0  0  0  0  0  0
   -2.9520   -4.6564    0.0000 C   0  0  0  0  0  0  0  0  0  0  0  0
   -2.6401   -3.1891    0.0000 C   0  0  0  0  0  0  0  0  0  0  0  0
   -1.2135   -2.7256    0.0000 C   0  0  0  0  0  0  0  0  0  0  0  0
    0.0000   -3.6073    0.0000 C   0  0  0  0  0  0  0  0  0  0  0  0
    1.2135   -2.7256    0.0000 N   0  0  0  0  0  0  0  0  0  0  0  0
    0.7500   -1.2990    0.0000 C   0  0  0  0  0  0  0  0  0  0  0  0
    1.5000    0.0000    0.0000 C   0  0  0  0  0  0  0  0  0  0  0  0
    0.7500    1.2990    0.0000 C   0  0  0  0  0  0  0  0  0  0  0  0
   -0.7500    1.2990    0.0000 C   0  0  0  0  0  0  0  0  0  0  0  0
   -1.5000    0.0000    0.0000 C   0  0  0  0  0  0  0  0  0  0  0  0
   -3.0000    0.0000    0.0000 Br  0  0  0  0  0  0  0  0  0  0  0  0
   -0.7500   -1.2990    0.0000 C   0  0  0  0  0  0  0  0  0  0  0  0
   -1.9483   -5.7711    0.0000 C   0  0  0  0  0  0  0  0  0  0  0  0
   -0.4565   -5.6143    0.0000 O   0  0  0  0  0  0  0  0  0  0  0  0
   -2.6983   -7.0701    0.0000 N   0  0  0  0  0  0  0  0  0  0  0  0
   -2.0882   -8.4404    0.0000 C   0  0  0  0  0  0  0  0  0  0  0  0
  1  2  1  0
  2  3  2  0
  3  4  1  0
  4  5  1  0
  5  6  2  0
  6  7  1  0
  7  8  2  0
  8  9  1  0
  9 10  1  0
 10 11  2  0
 11 12  1  0
 12 13  2  0
 13 14  1  0
 14 15  1  0
 14 16  2  0
  5 17  1  0
 17 18  2  0
 17 19  1  0
 19 20  1  0
 19  3  1  0
 16  7  1  0
 16 10  1  0
M  END
>  <assay_chembl_id>  (364) 
CHEMBL2445946

>  <assay_description>  (364) 
Displacement of [3H]LSD from human recombinant 5HT2B receptor stably expressed in HEK cells

>  <parent_molecule_chembl_id>  (364) 
CHEMBL2442266

>  <canonical_smiles>  (364) 
C/N=C1/N/C(=C/c2c[nH]c3cccc(Br)c23)C(=O)N1C

>  <standard_type>  (364) 
Ki

>  <standard_relation>  (364) 
=

>  <standard_value>  (364) 
774.0

>  <standard_units>  (364) 
nM

>  <target_pref_name>  (364) 
Serotonin 2b (5-HT2b) receptor

>  <target_chembl_id>  (364) 
CHEMBL1833

>  <target_organism>  (364) 
Homo sapiens

>  <pchembl_median>  (364) 
8.09

$$$$
CHEMBL508657
     RDKit          2D

 19 21  0  0  0  0  0  0  0  0999 V2000
   -4.9684   -9.2292    0.0000 C   0  0  0  0  0  0  0  0  0  0  0  0
   -5.2802   -7.7620    0.0000 N   0  0  0  0  0  0  0  0  0  0  0  0
   -4.1655   -6.7583    0.0000 C   0  0  0  0  0  0  0  0  0  0  0  0
   -2.6983   -7.0701    0.0000 N   0  0  0  0  0  0  0  0  0  0  0  0
   -1.9483   -5.7711    0.0000 C   0  0  0  0  0  0  0  0  0  0  0  0
   -0.4565   -5.6143    0.0000 O   0  0  0  0  0  0  0  0  0  0  0  0
   -2.9520   -4.6564    0.0000 C   0  0  0  0  0  0  0  0  0  0  0  0
   -2.6401   -3.1891    0.0000 C   0  0  0  0  0  0  0  0  0  0  0  0
   -1.2135   -2.7256    0.0000 C   0  0  0  0  0  0  0  0  0  0  0  0
    0.0000   -3.6073    0.0000 C   0  0  0  0  0  0  0  0  0  0  0  0
    1.2135   -2.7256    0.0000 N   0  0  0  0  0  0  0  0  0  0  0  0
    0.7500   -1.2990    0.0000 C   0  0  0  0  0  0  0  0  0  0  0  0
    1.5000    0.0000    0.0000 C   0  0  0  0  0  0  0  0  0  0  0  0
    0.7500    1.2990    0.0000 C   0  0  0  0  0  0  0  0  0  0  0  0
   -0.7500    1.2990    0.0000 C   0  0  0  0  0  0  0  0  0  0  0  0
   -1.5000    0.0000    0.0000 C   0  0  0  0  0  0  0  0  0  0  0  0
   -0.7500   -1.2990    0.0000 C   0  0  0  0  0  0  0  0  0  0  0  0
   -4.3223   -5.2665    0.0000 N   0  0  0  0  0  0  0  0  0  0  0  0
   -5.6213   -4.5165    0.0000 C   0  0  0  0  0  0  0  0  0  0  0  0
  1  2  1  0
  2  3  2  0
  3  4  1  0
  4  5  1  0
  5  6  2  0
  5  7  1  0
  7  8  2  0
  8  9  1  0
  9 10  2  0
 10 11  1  0
 11 12  1  0
 12 13  2  0
 13 14  1  0
 14 15  2  0
 15 16  1  0
 16 17  2  0
  7 18  1  0
 18 19  1  0
 18  3  1  0
 17  9  1  0
 17 12  1  0
M  END
>  <assay_chembl_id>  (365) 
CHEMBL2445946

>  <assay_description>  (365) 
Displacement of [3H]LSD from human recombinant 5HT2B receptor stably expressed in HEK cells

>  <parent_molecule_chembl_id>  (365) 
CHEMBL508657

>  <canonical_smiles>  (365) 
C/N=C1\NC(=O)/C(=C\c2c[nH]c3ccccc23)N1C

>  <standard_type>  (365) 
Ki

>  <standard_relation>  (365) 
=

>  <standard_value>  (365) 
716.0

>  <standard_units>  (365) 
nM

>  <target_pref_name>  (365) 
Serotonin 2b (5-HT2b) receptor

>  <target_chembl_id>  (365) 
CHEMBL1833

>  <target_organism>  (365) 
Homo sapiens

>  <pchembl_median>  (365) 
6.77

$$$$
CHEMBL2058418
     RDKit          2D

 20 22  0  0  0  0  0  0  0  0999 V2000
   -4.9684   -9.2292    0.0000 C   0  0  0  0  0  0  0  0  0  0  0  0
   -5.2802   -7.7620    0.0000 N   0  0  0  0  0  0  0  0  0  0  0  0
   -4.1655   -6.7583    0.0000 C   0  0  0  0  0  0  0  0  0  0  0  0
   -2.6983   -7.0701    0.0000 N   0  0  0  0  0  0  0  0  0  0  0  0
   -1.9483   -5.7711    0.0000 C   0  0  0  0  0  0  0  0  0  0  0  0
   -0.4565   -5.6143    0.0000 O   0  0  0  0  0  0  0  0  0  0  0  0
   -2.9520   -4.6564    0.0000 C   0  0  0  0  0  0  0  0  0  0  0  0
   -2.6401   -3.1891    0.0000 C   0  0  0  0  0  0  0  0  0  0  0  0
   -1.2135   -2.7256    0.0000 C   0  0  0  0  0  0  0  0  0  0  0  0
    0.0000   -3.6073    0.0000 C   0  0  0  0  0  0  0  0  0  0  0  0
    1.2135   -2.7256    0.0000 N   0  0  0  0  0  0  0  0  0  0  0  0
    0.7500   -1.2990    0.0000 C   0  0  0  0  0  0  0  0  0  0  0  0
    1.5000    0.0000    0.0000 C   0  0  0  0  0  0  0  0  0  0  0  0
    3.0000    0.0000    0.0000 Br  0  0  0  0  0  0  0  0  0  0  0  0
    0.7500    1.2990    0.0000 C   0  0  0  0  0  0  0  0  0  0  0  0
   -0.7500    1.2990    0.0000 C   0  0  0  0  0  0  0  0  0  0  0  0
   -1.5000    0.0000    0.0000 C   0  0  0  0  0  0  0  0  0  0  0  0
   -0.7500   -1.2990    0.0000 C   0  0  0  0  0  0  0  0  0  0  0  0
   -4.3223   -5.2665    0.0000 N   0  0  0  0  0  0  0  0  0  0  0  0
   -5.6213   -4.5165    0.0000 C   0  0  0  0  0  0  0  0  0  0  0  0
  1  2  1  0
  2  3  2  0
  3  4  1  0
  4  5  1  0
  5  6  2  0
  5  7  1  0
  7  8  2  0
  8  9  1  0
  9 10  2  0
 10 11  1  0
 11 12  1  0
 12 13  2  0
 13 14  1  0
 13 15  1  0
 15 16  2  0
 16 17  1  0
 17 18  2  0
  7 19  1  0
 19 20  1  0
 19  3  1  0
 18  9  1  0
 18 12  1  0
M  END
>  <assay_chembl_id>  (366) 
CHEMBL2445946

>  <assay_description>  (366) 
Displacement of [3H]LSD from human recombinant 5HT2B receptor stably expressed in HEK cells

>  <parent_molecule_chembl_id>  (366) 
CHEMBL2058418

>  <canonical_smiles>  (366) 
C/N=C1\NC(=O)/C(=C\c2c[nH]c3c(Br)cccc23)N1C

>  <standard_type>  (366) 
Ki

>  <standard_relation>  (366) 
=

>  <standard_value>  (366) 
661.0

>  <standard_units>  (366) 
nM

>  <target_pref_name>  (366) 
Serotonin 2b (5-HT2b) receptor

>  <target_chembl_id>  (366) 
CHEMBL1833

>  <target_organism>  (366) 
Homo sapiens

>  <pchembl_median>  (366) 
6.94

$$$$
CHEMBL2442277
     RDKit          2D

 19 21  0  0  0  0  0  0  0  0999 V2000
   -2.0882   -8.4404    0.0000 C   0  0  0  0  0  0  0  0  0  0  0  0
   -2.6983   -7.0701    0.0000 N   0  0  0  0  0  0  0  0  0  0  0  0
   -4.1655   -6.7583    0.0000 C   0  0  0  0  0  0  0  0  0  0  0  0
   -5.2802   -7.7620    0.0000 N   0  0  0  0  0  0  0  0  0  0  0  0
   -4.3223   -5.2665    0.0000 N   0  0  0  0  0  0  0  0  0  0  0  0
   -2.9520   -4.6564    0.0000 C   0  0  0  0  0  0  0  0  0  0  0  0
   -2.6401   -3.1891    0.0000 C   0  0  0  0  0  0  0  0  0  0  0  0
   -1.2135   -2.7256    0.0000 C   0  0  0  0  0  0  0  0  0  0  0  0
    0.0000   -3.6073    0.0000 C   0  0  0  0  0  0  0  0  0  0  0  0
    1.2135   -2.7256    0.0000 N   0  0  0  0  0  0  0  0  0  0  0  0
    0.7500   -1.2990    0.0000 C   0  0  0  0  0  0  0  0  0  0  0  0
    1.5000    0.0000    0.0000 C   0  0  0  0  0  0  0  0  0  0  0  0
    3.0000    0.0000    0.0000 Br  0  0  0  0  0  0  0  0  0  0  0  0
    0.7500    1.2990    0.0000 C   0  0  0  0  0  0  0  0  0  0  0  0
   -0.7500    1.2990    0.0000 C   0  0  0  0  0  0  0  0  0  0  0  0
   -1.5000    0.0000    0.0000 C   0  0  0  0  0  0  0  0  0  0  0  0
   -0.7500   -1.2990    0.0000 C   0  0  0  0  0  0  0  0  0  0  0  0
   -1.9483   -5.7711    0.0000 C   0  0  0  0  0  0  0  0  0  0  0  0
   -0.4565   -5.6143    0.0000 O   0  0  0  0  0  0  0  0  0  0  0  0
  1  2  1  0
  2  3  1  0
  3  4  2  0
  3  5  1  0
  5  6  1  0
  6  7  2  0
  7  8  1  0
  8  9  2  0
  9 10  1  0
 10 11  1  0
 11 12  2  0
 12 13  1  0
 12 14  1  0
 14 15  2  0
 15 16  1  0
 16 17  2  0
  6 18  1  0
 18 19  2  0
 18  2  1  0
 17  8  1  0
 17 11  1  0
M  END
>  <assay_chembl_id>  (367) 
CHEMBL2445946

>  <assay_description>  (367) 
Displacement of [3H]LSD from human recombinant 5HT2B receptor stably expressed in HEK cells

>  <parent_molecule_chembl_id>  (367) 
CHEMBL2442277

>  <canonical_smiles>  (367) 
CN1C(=N)N/C(=C/c2c[nH]c3c(Br)cccc23)C1=O

>  <standard_type>  (367) 
Ki

>  <standard_relation>  (367) 
=

>  <standard_value>  (367) 
593.0

>  <standard_units>  (367) 
nM

>  <target_pref_name>  (367) 
Serotonin 2b (5-HT2b) receptor

>  <target_chembl_id>  (367) 
CHEMBL1833

>  <target_organism>  (367) 
Homo sapiens

>  <pchembl_median>  (367) 
8.42

$$$$
CHEMBL2058419
     RDKit          2D

 20 22  0  0  0  0  0  0  0  0999 V2000
   -2.0882   -8.4404    0.0000 C   0  0  0  0  0  0  0  0  0  0  0  0
   -2.6983   -7.0701    0.0000 N   0  0  0  0  0  0  0  0  0  0  0  0
   -4.1655   -6.7583    0.0000 C   0  0  0  0  0  0  0  0  0  0  0  0
   -5.2802   -7.7620    0.0000 N   0  0  0  0  0  0  0  0  0  0  0  0
   -4.3223   -5.2665    0.0000 N   0  0  0  0  0  0  0  0  0  0  0  0
   -5.6213   -4.5165    0.0000 C   0  0  0  0  0  0  0  0  0  0  0  0
   -2.9520   -4.6564    0.0000 C   0  0  0  0  0  0  0  0  0  0  0  0
   -2.6401   -3.1891    0.0000 C   0  0  0  0  0  0  0  0  0  0  0  0
   -1.2135   -2.7256    0.0000 C   0  0  0  0  0  0  0  0  0  0  0  0
    0.0000   -3.6073    0.0000 C   0  0  0  0  0  0  0  0  0  0  0  0
    1.2135   -2.7256    0.0000 N   0  0  0  0  0  0  0  0  0  0  0  0
    0.7500   -1.2990    0.0000 C   0  0  0  0  0  0  0  0  0  0  0  0
    1.5000    0.0000    0.0000 C   0  0  0  0  0  0  0  0  0  0  0  0
    0.7500    1.2990    0.0000 C   0  0  0  0  0  0  0  0  0  0  0  0
   -0.7500    1.2990    0.0000 C   0  0  0  0  0  0  0  0  0  0  0  0
   -1.5000    0.0000    0.0000 C   0  0  0  0  0  0  0  0  0  0  0  0
   -3.0000    0.0000    0.0000 Br  0  0  0  0  0  0  0  0  0  0  0  0
   -0.7500   -1.2990    0.0000 C   0  0  0  0  0  0  0  0  0  0  0  0
   -1.9483   -5.7711    0.0000 C   0  0  0  0  0  0  0  0  0  0  0  0
   -0.4565   -5.6143    0.0000 O   0  0  0  0  0  0  0  0  0  0  0  0
  1  2  1  0
  2  3  1  0
  3  4  2  0
  3  5  1  0
  5  6  1  0
  5  7  1  0
  7  8  2  0
  8  9  1  0
  9 10  2  0
 10 11  1  0
 11 12  1  0
 12 13  2  0
 13 14  1  0
 14 15  2  0
 15 16  1  0
 16 17  1  0
 16 18  2  0
  7 19  1  0
 19 20  2  0
 19  2  1  0
 18  9  1  0
 18 12  1  0
M  END
>  <assay_chembl_id>  (368) 
CHEMBL2445946

>  <assay_description>  (368) 
Displacement of [3H]LSD from human recombinant 5HT2B receptor stably expressed in HEK cells

>  <parent_molecule_chembl_id>  (368) 
CHEMBL2058419

>  <canonical_smiles>  (368) 
CN1C(=N)N(C)/C(=C/c2c[nH]c3cccc(Br)c23)C1=O

>  <standard_type>  (368) 
Ki

>  <standard_relation>  (368) 
=

>  <standard_value>  (368) 
589.0

>  <standard_units>  (368) 
nM

>  <target_pref_name>  (368) 
Serotonin 2b (5-HT2b) receptor

>  <target_chembl_id>  (368) 
CHEMBL1833

>  <target_organism>  (368) 
Homo sapiens

>  <pchembl_median>  (368) 
5.52

$$$$
CHEMBL2442267
     RDKit          2D

 20 22  0  0  0  0  0  0  0  0999 V2000
   -4.9684   -9.2292    0.0000 C   0  0  0  0  0  0  0  0  0  0  0  0
   -5.2802   -7.7620    0.0000 N   0  0  0  0  0  0  0  0  0  0  0  0
   -4.1655   -6.7583    0.0000 C   0  0  0  0  0  0  0  0  0  0  0  0
   -4.3223   -5.2665    0.0000 N   0  0  0  0  0  0  0  0  0  0  0  0
   -2.9520   -4.6564    0.0000 C   0  0  0  0  0  0  0  0  0  0  0  0
   -2.6401   -3.1891    0.0000 C   0  0  0  0  0  0  0  0  0  0  0  0
   -1.2135   -2.7256    0.0000 C   0  0  0  0  0  0  0  0  0  0  0  0
    0.0000   -3.6073    0.0000 C   0  0  0  0  0  0  0  0  0  0  0  0
    1.2135   -2.7256    0.0000 N   0  0  0  0  0  0  0  0  0  0  0  0
    0.7500   -1.2990    0.0000 C   0  0  0  0  0  0  0  0  0  0  0  0
    1.5000    0.0000    0.0000 C   0  0  0  0  0  0  0  0  0  0  0  0
    0.7500    1.2990    0.0000 C   0  0  0  0  0  0  0  0  0  0  0  0
   -0.7500    1.2990    0.0000 C   0  0  0  0  0  0  0  0  0  0  0  0
   -1.5000    2.5981    0.0000 Br  0  0  0  0  0  0  0  0  0  0  0  0
   -1.5000    0.0000    0.0000 C   0  0  0  0  0  0  0  0  0  0  0  0
   -0.7500   -1.2990    0.0000 C   0  0  0  0  0  0  0  0  0  0  0  0
   -1.9483   -5.7711    0.0000 C   0  0  0  0  0  0  0  0  0  0  0  0
   -0.4565   -5.6143    0.0000 O   0  0  0  0  0  0  0  0  0  0  0  0
   -2.6983   -7.0701    0.0000 N   0  0  0  0  0  0  0  0  0  0  0  0
   -2.0882   -8.4404    0.0000 C   0  0  0  0  0  0  0  0  0  0  0  0
  1  2  1  0
  2  3  2  0
  3  4  1  0
  4  5  1  0
  5  6  2  0
  6  7  1  0
  7  8  2  0
  8  9  1  0
  9 10  1  0
 10 11  2  0
 11 12  1  0
 12 13  2  0
 13 14  1  0
 13 15  1  0
 15 16  2  0
  5 17  1  0
 17 18  2  0
 17 19  1  0
 19 20  1  0
 19  3  1  0
 16  7  1  0
 16 10  1  0
M  END
>  <assay_chembl_id>  (369) 
CHEMBL2445946

>  <assay_description>  (369) 
Displacement of [3H]LSD from human recombinant 5HT2B receptor stably expressed in HEK cells

>  <parent_molecule_chembl_id>  (369) 
CHEMBL2442267

>  <canonical_smiles>  (369) 
C/N=C1/N/C(=C/c2c[nH]c3ccc(Br)cc23)C(=O)N1C

>  <standard_type>  (369) 
Ki

>  <standard_relation>  (369) 
=

>  <standard_value>  (369) 
520.0

>  <standard_units>  (369) 
nM

>  <target_pref_name>  (369) 
Serotonin 2b (5-HT2b) receptor

>  <target_chembl_id>  (369) 
CHEMBL1833

>  <target_organism>  (369) 
Homo sapiens

>  <pchembl_median>  (369) 
6.66

$$$$
CHEMBL2058417
     RDKit          2D

 20 22  0  0  0  0  0  0  0  0999 V2000
   -4.9684   -9.2292    0.0000 C   0  0  0  0  0  0  0  0  0  0  0  0
   -5.2802   -7.7620    0.0000 N   0  0  0  0  0  0  0  0  0  0  0  0
   -4.1655   -6.7583    0.0000 C   0  0  0  0  0  0  0  0  0  0  0  0
   -2.6983   -7.0701    0.0000 N   0  0  0  0  0  0  0  0  0  0  0  0
   -1.9483   -5.7711    0.0000 C   0  0  0  0  0  0  0  0  0  0  0  0
   -0.4565   -5.6143    0.0000 O   0  0  0  0  0  0  0  0  0  0  0  0
   -2.9520   -4.6564    0.0000 C   0  0  0  0  0  0  0  0  0  0  0  0
   -2.6401   -3.1891    0.0000 C   0  0  0  0  0  0  0  0  0  0  0  0
   -1.2135   -2.7256    0.0000 C   0  0  0  0  0  0  0  0  0  0  0  0
    0.0000   -3.6073    0.0000 C   0  0  0  0  0  0  0  0  0  0  0  0
    1.2135   -2.7256    0.0000 N   0  0  0  0  0  0  0  0  0  0  0  0
    0.7500   -1.2990    0.0000 C   0  0  0  0  0  0  0  0  0  0  0  0
    1.5000    0.0000    0.0000 C   0  0  0  0  0  0  0  0  0  0  0  0
    0.7500    1.2990    0.0000 C   0  0  0  0  0  0  0  0  0  0  0  0
    1.5000    2.5981    0.0000 Br  0  0  0  0  0  0  0  0  0  0  0  0
   -0.7500    1.2990    0.0000 C   0  0  0  0  0  0  0  0  0  0  0  0
   -1.5000    0.0000    0.0000 C   0  0  0  0  0  0  0  0  0  0  0  0
   -0.7500   -1.2990    0.0000 C   0  0  0  0  0  0  0  0  0  0  0  0
   -4.3223   -5.2665    0.0000 N   0  0  0  0  0  0  0  0  0  0  0  0
   -5.6213   -4.5165    0.0000 C   0  0  0  0  0  0  0  0  0  0  0  0
  1  2  1  0
  2  3  2  0
  3  4  1  0
  4  5  1  0
  5  6  2  0
  5  7  1  0
  7  8  2  0
  8  9  1  0
  9 10  2  0
 10 11  1  0
 11 12  1  0
 12 13  2  0
 13 14  1  0
 14 15  1  0
 14 16  2  0
 16 17  1  0
 17 18  2  0
  7 19  1  0
 19 20  1  0
 19  3  1  0
 18  9  1  0
 18 12  1  0
M  END
>  <assay_chembl_id>  (370) 
CHEMBL2445946

>  <assay_description>  (370) 
Displacement of [3H]LSD from human recombinant 5HT2B receptor stably expressed in HEK cells

>  <parent_molecule_chembl_id>  (370) 
CHEMBL2058417

>  <canonical_smiles>  (370) 
C/N=C1\NC(=O)/C(=C\c2c[nH]c3cc(Br)ccc23)N1C

>  <standard_type>  (370) 
Ki

>  <standard_relation>  (370) 
=

>  <standard_value>  (370) 
489.0

>  <standard_units>  (370) 
nM

>  <target_pref_name>  (370) 
Serotonin 2b (5-HT2b) receptor

>  <target_chembl_id>  (370) 
CHEMBL1833

>  <target_organism>  (370) 
Homo sapiens

>  <pchembl_median>  (370) 
7.23

$$$$
CHEMBL2442274
     RDKit          2D

 18 20  0  0  0  0  0  0  0  0999 V2000
   -5.2802   -7.7620    0.0000 N   0  0  0  0  0  0  0  0  0  0  0  0
   -4.1655   -6.7583    0.0000 C   0  0  0  0  0  0  0  0  0  0  0  0
   -2.6983   -7.0701    0.0000 N   0  0  0  0  0  0  0  0  0  0  0  0
   -1.9483   -5.7711    0.0000 C   0  0  0  0  0  0  0  0  0  0  0  0
   -0.4565   -5.6143    0.0000 O   0  0  0  0  0  0  0  0  0  0  0  0
   -2.9520   -4.6564    0.0000 C   0  0  0  0  0  0  0  0  0  0  0  0
   -2.6401   -3.1891    0.0000 C   0  0  0  0  0  0  0  0  0  0  0  0
   -1.2135   -2.7256    0.0000 C   0  0  0  0  0  0  0  0  0  0  0  0
    0.0000   -3.6073    0.0000 C   0  0  0  0  0  0  0  0  0  0  0  0
    1.2135   -2.7256    0.0000 N   0  0  0  0  0  0  0  0  0  0  0  0
    0.7500   -1.2990    0.0000 C   0  0  0  0  0  0  0  0  0  0  0  0
    1.5000    0.0000    0.0000 C   0  0  0  0  0  0  0  0  0  0  0  0
    3.0000    0.0000    0.0000 Br  0  0  0  0  0  0  0  0  0  0  0  0
    0.7500    1.2990    0.0000 C   0  0  0  0  0  0  0  0  0  0  0  0
   -0.7500    1.2990    0.0000 C   0  0  0  0  0  0  0  0  0  0  0  0
   -1.5000    0.0000    0.0000 C   0  0  0  0  0  0  0  0  0  0  0  0
   -0.7500   -1.2990    0.0000 C   0  0  0  0  0  0  0  0  0  0  0  0
   -4.3223   -5.2665    0.0000 N   0  0  0  0  0  0  0  0  0  0  0  0
  1  2  2  0
  2  3  1  0
  3  4  1  0
  4  5  2  0
  4  6  1  0
  6  7  2  0
  7  8  1  0
  8  9  2  0
  9 10  1  0
 10 11  1  0
 11 12  2  0
 12 13  1  0
 12 14  1  0
 14 15  2  0
 15 16  1  0
 16 17  2  0
  6 18  1  0
 18  2  1  0
 17  8  1  0
 17 11  1  0
M  END
>  <assay_chembl_id>  (371) 
CHEMBL2445946

>  <assay_description>  (371) 
Displacement of [3H]LSD from human recombinant 5HT2B receptor stably expressed in HEK cells

>  <parent_molecule_chembl_id>  (371) 
CHEMBL2442274

>  <canonical_smiles>  (371) 
N=C1NC(=O)/C(=C\c2c[nH]c3c(Br)cccc23)N1

>  <standard_type>  (371) 
Ki

>  <standard_relation>  (371) 
=

>  <standard_value>  (371) 
457.0

>  <standard_units>  (371) 
nM

>  <target_pref_name>  (371) 
Serotonin 2b (5-HT2b) receptor

>  <target_chembl_id>  (371) 
CHEMBL1833

>  <target_organism>  (371) 
Homo sapiens

>  <pchembl_median>  (371) 
8.39

$$$$
CHEMBL2442271
     RDKit          2D

 18 20  0  0  0  0  0  0  0  0999 V2000
   -5.2802   -7.7620    0.0000 N   0  0  0  0  0  0  0  0  0  0  0  0
   -4.1655   -6.7583    0.0000 C   0  0  0  0  0  0  0  0  0  0  0  0
   -2.6983   -7.0701    0.0000 N   0  0  0  0  0  0  0  0  0  0  0  0
   -1.9483   -5.7711    0.0000 C   0  0  0  0  0  0  0  0  0  0  0  0
   -0.4565   -5.6143    0.0000 O   0  0  0  0  0  0  0  0  0  0  0  0
   -2.9520   -4.6564    0.0000 C   0  0  0  0  0  0  0  0  0  0  0  0
   -2.6401   -3.1891    0.0000 C   0  0  0  0  0  0  0  0  0  0  0  0
   -1.2135   -2.7256    0.0000 C   0  0  0  0  0  0  0  0  0  0  0  0
    0.0000   -3.6073    0.0000 C   0  0  0  0  0  0  0  0  0  0  0  0
    1.2135   -2.7256    0.0000 N   0  0  0  0  0  0  0  0  0  0  0  0
    0.7500   -1.2990    0.0000 C   0  0  0  0  0  0  0  0  0  0  0  0
    1.5000    0.0000    0.0000 C   0  0  0  0  0  0  0  0  0  0  0  0
    0.7500    1.2990    0.0000 C   0  0  0  0  0  0  0  0  0  0  0  0
   -0.7500    1.2990    0.0000 C   0  0  0  0  0  0  0  0  0  0  0  0
   -1.5000    0.0000    0.0000 C   0  0  0  0  0  0  0  0  0  0  0  0
   -3.0000    0.0000    0.0000 Br  0  0  0  0  0  0  0  0  0  0  0  0
   -0.7500   -1.2990    0.0000 C   0  0  0  0  0  0  0  0  0  0  0  0
   -4.3223   -5.2665    0.0000 N   0  0  0  0  0  0  0  0  0  0  0  0
  1  2  2  0
  2  3  1  0
  3  4  1  0
  4  5  2  0
  4  6  1  0
  6  7  2  0
  7  8  1  0
  8  9  2  0
  9 10  1  0
 10 11  1  0
 11 12  2  0
 12 13  1  0
 13 14  2  0
 14 15  1  0
 15 16  1  0
 15 17  2  0
  6 18  1  0
 18  2  1  0
 17  8  1  0
 17 11  1  0
M  END
>  <assay_chembl_id>  (372) 
CHEMBL2445946

>  <assay_description>  (372) 
Displacement of [3H]LSD from human recombinant 5HT2B receptor stably expressed in HEK cells

>  <parent_molecule_chembl_id>  (372) 
CHEMBL2442271

>  <canonical_smiles>  (372) 
N=C1NC(=O)/C(=C\c2c[nH]c3cccc(Br)c23)N1

>  <standard_type>  (372) 
Ki

>  <standard_relation>  (372) 
=

>  <standard_value>  (372) 
447.0

>  <standard_units>  (372) 
nM

>  <target_pref_name>  (372) 
Serotonin 2b (5-HT2b) receptor

>  <target_chembl_id>  (372) 
CHEMBL1833

>  <target_organism>  (372) 
Homo sapiens

>  <pchembl_median>  (372) 
5.85

$$$$
CHEMBL2058694
     RDKit          2D

 18 20  0  0  0  0  0  0  0  0999 V2000
   -5.6213   -4.5165    0.0000 O   0  0  0  0  0  0  0  0  0  0  0  0
   -4.3223   -5.2665    0.0000 C   0  0  0  0  0  0  0  0  0  0  0  0
   -4.1655   -6.7583    0.0000 N   0  0  0  0  0  0  0  0  0  0  0  0
   -2.6983   -7.0701    0.0000 C   0  0  0  0  0  0  0  0  0  0  0  0
   -2.0882   -8.4404    0.0000 S   0  0  0  0  0  0  0  0  0  0  0  0
   -1.9483   -5.7711    0.0000 N   0  0  0  0  0  0  0  0  0  0  0  0
   -2.9520   -4.6564    0.0000 C   0  0  0  0  0  0  0  0  0  0  0  0
   -2.6401   -3.1891    0.0000 C   0  0  0  0  0  0  0  0  0  0  0  0
   -1.2135   -2.7256    0.0000 C   0  0  0  0  0  0  0  0  0  0  0  0
    0.0000   -3.6073    0.0000 C   0  0  0  0  0  0  0  0  0  0  0  0
    1.2135   -2.7256    0.0000 N   0  0  0  0  0  0  0  0  0  0  0  0
    0.7500   -1.2990    0.0000 C   0  0  0  0  0  0  0  0  0  0  0  0
    1.5000    0.0000    0.0000 C   0  0  0  0  0  0  0  0  0  0  0  0
    0.7500    1.2990    0.0000 C   0  0  0  0  0  0  0  0  0  0  0  0
   -0.7500    1.2990    0.0000 C   0  0  0  0  0  0  0  0  0  0  0  0
   -1.5000    0.0000    0.0000 C   0  0  0  0  0  0  0  0  0  0  0  0
   -3.0000    0.0000    0.0000 Br  0  0  0  0  0  0  0  0  0  0  0  0
   -0.7500   -1.2990    0.0000 C   0  0  0  0  0  0  0  0  0  0  0  0
  1  2  2  0
  2  3  1  0
  3  4  1  0
  4  5  2  0
  4  6  1  0
  6  7  1  0
  7  8  2  0
  8  9  1  0
  9 10  2  0
 10 11  1  0
 11 12  1  0
 12 13  2  0
 13 14  1  0
 14 15  2  0
 15 16  1  0
 16 17  1  0
 16 18  2  0
  7  2  1  0
 18  9  1  0
 18 12  1  0
M  END
>  <assay_chembl_id>  (373) 
CHEMBL2445946

>  <assay_description>  (373) 
Displacement of [3H]LSD from human recombinant 5HT2B receptor stably expressed in HEK cells

>  <parent_molecule_chembl_id>  (373) 
CHEMBL2058694

>  <canonical_smiles>  (373) 
O=C1NC(=S)N/C1=C\c1c[nH]c2cccc(Br)c12

>  <standard_type>  (373) 
Ki

>  <standard_relation>  (373) 
=

>  <standard_value>  (373) 
369.0

>  <standard_units>  (373) 
nM

>  <target_pref_name>  (373) 
Serotonin 2b (5-HT2b) receptor

>  <target_chembl_id>  (373) 
CHEMBL1833

>  <target_organism>  (373) 
Homo sapiens

>  <pchembl_median>  (373) 
7.44

$$$$
CHEMBL2058706
     RDKit          2D

 19 21  0  0  0  0  0  0  0  0999 V2000
   -2.9699   -9.6540    0.0000 C   0  0  0  0  0  0  0  0  0  0  0  0
   -2.0882   -8.4404    0.0000 N   0  0  0  0  0  0  0  0  0  0  0  0
   -2.6983   -7.0701    0.0000 C   0  0  0  0  0  0  0  0  0  0  0  0
   -4.1655   -6.7583    0.0000 N   0  0  0  0  0  0  0  0  0  0  0  0
   -4.3223   -5.2665    0.0000 C   0  0  0  0  0  0  0  0  0  0  0  0
   -5.6213   -4.5165    0.0000 O   0  0  0  0  0  0  0  0  0  0  0  0
   -2.9520   -4.6564    0.0000 C   0  0  0  0  0  0  0  0  0  0  0  0
   -2.6401   -3.1891    0.0000 C   0  0  0  0  0  0  0  0  0  0  0  0
   -1.2135   -2.7256    0.0000 C   0  0  0  0  0  0  0  0  0  0  0  0
    0.0000   -3.6073    0.0000 C   0  0  0  0  0  0  0  0  0  0  0  0
    1.2135   -2.7256    0.0000 N   0  0  0  0  0  0  0  0  0  0  0  0
    0.7500   -1.2990    0.0000 C   0  0  0  0  0  0  0  0  0  0  0  0
    1.5000    0.0000    0.0000 C   0  0  0  0  0  0  0  0  0  0  0  0
    3.0000    0.0000    0.0000 Br  0  0  0  0  0  0  0  0  0  0  0  0
    0.7500    1.2990    0.0000 C   0  0  0  0  0  0  0  0  0  0  0  0
   -0.7500    1.2990    0.0000 C   0  0  0  0  0  0  0  0  0  0  0  0
   -1.5000    0.0000    0.0000 C   0  0  0  0  0  0  0  0  0  0  0  0
   -0.7500   -1.2990    0.0000 C   0  0  0  0  0  0  0  0  0  0  0  0
   -1.9483   -5.7711    0.0000 N   0  0  0  0  0  0  0  0  0  0  0  0
  1  2  1  0
  2  3  2  0
  3  4  1  0
  4  5  1  0
  5  6  2  0
  5  7  1  0
  7  8  2  0
  8  9  1  0
  9 10  2  0
 10 11  1  0
 11 12  1  0
 12 13  2  0
 13 14  1  0
 13 15  1  0
 15 16  2  0
 16 17  1  0
 17 18  2  0
  7 19  1  0
 19  3  1  0
 18  9  1  0
 18 12  1  0
M  END
>  <assay_chembl_id>  (374) 
CHEMBL2445946

>  <assay_description>  (374) 
Displacement of [3H]LSD from human recombinant 5HT2B receptor stably expressed in HEK cells

>  <parent_molecule_chembl_id>  (374) 
CHEMBL2058706

>  <canonical_smiles>  (374) 
C/N=C1\NC(=O)/C(=C/c2c[nH]c3c(Br)cccc23)N1

>  <standard_type>  (374) 
Ki

>  <standard_relation>  (374) 
=

>  <standard_value>  (374) 
353.0

>  <standard_units>  (374) 
nM

>  <target_pref_name>  (374) 
Serotonin 2b (5-HT2b) receptor

>  <target_chembl_id>  (374) 
CHEMBL1833

>  <target_organism>  (374) 
Homo sapiens

>  <pchembl_median>  (374) 
6.64

$$$$
CHEMBL2058420
     RDKit          2D

 20 22  0  0  0  0  0  0  0  0999 V2000
   -2.0882   -8.4404    0.0000 C   0  0  0  0  0  0  0  0  0  0  0  0
   -2.6983   -7.0701    0.0000 N   0  0  0  0  0  0  0  0  0  0  0  0
   -4.1655   -6.7583    0.0000 C   0  0  0  0  0  0  0  0  0  0  0  0
   -5.2802   -7.7620    0.0000 N   0  0  0  0  0  0  0  0  0  0  0  0
   -4.3223   -5.2665    0.0000 N   0  0  0  0  0  0  0  0  0  0  0  0
   -5.6213   -4.5165    0.0000 C   0  0  0  0  0  0  0  0  0  0  0  0
   -2.9520   -4.6564    0.0000 C   0  0  0  0  0  0  0  0  0  0  0  0
   -2.6401   -3.1891    0.0000 C   0  0  0  0  0  0  0  0  0  0  0  0
   -1.2135   -2.7256    0.0000 C   0  0  0  0  0  0  0  0  0  0  0  0
    0.0000   -3.6073    0.0000 C   0  0  0  0  0  0  0  0  0  0  0  0
    1.2135   -2.7256    0.0000 N   0  0  0  0  0  0  0  0  0  0  0  0
    0.7500   -1.2990    0.0000 C   0  0  0  0  0  0  0  0  0  0  0  0
    1.5000    0.0000    0.0000 C   0  0  0  0  0  0  0  0  0  0  0  0
    3.0000    0.0000    0.0000 Br  0  0  0  0  0  0  0  0  0  0  0  0
    0.7500    1.2990    0.0000 C   0  0  0  0  0  0  0  0  0  0  0  0
   -0.7500    1.2990    0.0000 C   0  0  0  0  0  0  0  0  0  0  0  0
   -1.5000    0.0000    0.0000 C   0  0  0  0  0  0  0  0  0  0  0  0
   -0.7500   -1.2990    0.0000 C   0  0  0  0  0  0  0  0  0  0  0  0
   -1.9483   -5.7711    0.0000 C   0  0  0  0  0  0  0  0  0  0  0  0
   -0.4565   -5.6143    0.0000 O   0  0  0  0  0  0  0  0  0  0  0  0
  1  2  1  0
  2  3  1  0
  3  4  2  0
  3  5  1  0
  5  6  1  0
  5  7  1  0
  7  8  2  0
  8  9  1  0
  9 10  2  0
 10 11  1  0
 11 12  1  0
 12 13  2  0
 13 14  1  0
 13 15  1  0
 15 16  2  0
 16 17  1  0
 17 18  2  0
  7 19  1  0
 19 20  2  0
 19  2  1  0
 18  9  1  0
 18 12  1  0
M  END
>  <assay_chembl_id>  (375) 
CHEMBL2445946

>  <assay_description>  (375) 
Displacement of [3H]LSD from human recombinant 5HT2B receptor stably expressed in HEK cells

>  <parent_molecule_chembl_id>  (375) 
CHEMBL2058420

>  <canonical_smiles>  (375) 
CN1C(=N)N(C)/C(=C/c2c[nH]c3c(Br)cccc23)C1=O

>  <standard_type>  (375) 
Ki

>  <standard_relation>  (375) 
=

>  <standard_value>  (375) 
349.0

>  <standard_units>  (375) 
nM

>  <target_pref_name>  (375) 
Serotonin 2b (5-HT2b) receptor

>  <target_chembl_id>  (375) 
CHEMBL1833

>  <target_organism>  (375) 
Homo sapiens

>  <pchembl_median>  (375) 
7.58

$$$$
CHEMBL2058702
     RDKit          2D

 18 20  0  0  0  0  0  0  0  0999 V2000
   -2.9699   -9.6540    0.0000 C   0  0  0  0  0  0  0  0  0  0  0  0
   -2.0882   -8.4404    0.0000 N   0  0  0  0  0  0  0  0  0  0  0  0
   -2.6983   -7.0701    0.0000 C   0  0  0  0  0  0  0  0  0  0  0  0
   -4.1655   -6.7583    0.0000 N   0  0  0  0  0  0  0  0  0  0  0  0
   -4.3223   -5.2665    0.0000 C   0  0  0  0  0  0  0  0  0  0  0  0
   -5.6213   -4.5165    0.0000 O   0  0  0  0  0  0  0  0  0  0  0  0
   -2.9520   -4.6564    0.0000 C   0  0  0  0  0  0  0  0  0  0  0  0
   -2.6401   -3.1891    0.0000 C   0  0  0  0  0  0  0  0  0  0  0  0
   -1.2135   -2.7256    0.0000 C   0  0  0  0  0  0  0  0  0  0  0  0
    0.0000   -3.6073    0.0000 C   0  0  0  0  0  0  0  0  0  0  0  0
    1.2135   -2.7256    0.0000 N   0  0  0  0  0  0  0  0  0  0  0  0
    0.7500   -1.2990    0.0000 C   0  0  0  0  0  0  0  0  0  0  0  0
    1.5000    0.0000    0.0000 C   0  0  0  0  0  0  0  0  0  0  0  0
    0.7500    1.2990    0.0000 C   0  0  0  0  0  0  0  0  0  0  0  0
   -0.7500    1.2990    0.0000 C   0  0  0  0  0  0  0  0  0  0  0  0
   -1.5000    0.0000    0.0000 C   0  0  0  0  0  0  0  0  0  0  0  0
   -0.7500   -1.2990    0.0000 C   0  0  0  0  0  0  0  0  0  0  0  0
   -1.9483   -5.7711    0.0000 N   0  0  0  0  0  0  0  0  0  0  0  0
  1  2  1  0
  2  3  2  0
  3  4  1  0
  4  5  1  0
  5  6  2  0
  5  7  1  0
  7  8  2  0
  8  9  1  0
  9 10  2  0
 10 11  1  0
 11 12  1  0
 12 13  2  0
 13 14  1  0
 14 15  2  0
 15 16  1  0
 16 17  2  0
  7 18  1  0
 18  3  1  0
 17  9  1  0
 17 12  1  0
M  END
>  <assay_chembl_id>  (376) 
CHEMBL2445946

>  <assay_description>  (376) 
Displacement of [3H]LSD from human recombinant 5HT2B receptor stably expressed in HEK cells

>  <parent_molecule_chembl_id>  (376) 
CHEMBL2058702

>  <canonical_smiles>  (376) 
C/N=C1\NC(=O)/C(=C/c2c[nH]c3ccccc23)N1

>  <standard_type>  (376) 
Ki

>  <standard_relation>  (376) 
=

>  <standard_value>  (376) 
287.0

>  <standard_units>  (376) 
nM

>  <target_pref_name>  (376) 
Serotonin 2b (5-HT2b) receptor

>  <target_chembl_id>  (376) 
CHEMBL1833

>  <target_organism>  (376) 
Homo sapiens

>  <pchembl_median>  (376) 
7.23

$$$$
CHEMBL2442273
     RDKit          2D

 18 20  0  0  0  0  0  0  0  0999 V2000
   -5.2802   -7.7620    0.0000 N   0  0  0  0  0  0  0  0  0  0  0  0
   -4.1655   -6.7583    0.0000 C   0  0  0  0  0  0  0  0  0  0  0  0
   -2.6983   -7.0701    0.0000 N   0  0  0  0  0  0  0  0  0  0  0  0
   -1.9483   -5.7711    0.0000 C   0  0  0  0  0  0  0  0  0  0  0  0
   -0.4565   -5.6143    0.0000 O   0  0  0  0  0  0  0  0  0  0  0  0
   -2.9520   -4.6564    0.0000 C   0  0  0  0  0  0  0  0  0  0  0  0
   -2.6401   -3.1891    0.0000 C   0  0  0  0  0  0  0  0  0  0  0  0
   -1.2135   -2.7256    0.0000 C   0  0  0  0  0  0  0  0  0  0  0  0
    0.0000   -3.6073    0.0000 C   0  0  0  0  0  0  0  0  0  0  0  0
    1.2135   -2.7256    0.0000 N   0  0  0  0  0  0  0  0  0  0  0  0
    0.7500   -1.2990    0.0000 C   0  0  0  0  0  0  0  0  0  0  0  0
    1.5000    0.0000    0.0000 C   0  0  0  0  0  0  0  0  0  0  0  0
    0.7500    1.2990    0.0000 C   0  0  0  0  0  0  0  0  0  0  0  0
    1.5000    2.5981    0.0000 Br  0  0  0  0  0  0  0  0  0  0  0  0
   -0.7500    1.2990    0.0000 C   0  0  0  0  0  0  0  0  0  0  0  0
   -1.5000    0.0000    0.0000 C   0  0  0  0  0  0  0  0  0  0  0  0
   -0.7500   -1.2990    0.0000 C   0  0  0  0  0  0  0  0  0  0  0  0
   -4.3223   -5.2665    0.0000 N   0  0  0  0  0  0  0  0  0  0  0  0
  1  2  2  0
  2  3  1  0
  3  4  1  0
  4  5  2  0
  4  6  1  0
  6  7  2  0
  7  8  1  0
  8  9  2  0
  9 10  1  0
 10 11  1  0
 11 12  2  0
 12 13  1  0
 13 14  1  0
 13 15  2  0
 15 16  1  0
 16 17  2  0
  6 18  1  0
 18  2  1  0
 17  8  1  0
 17 11  1  0
M  END
>  <assay_chembl_id>  (377) 
CHEMBL2445946

>  <assay_description>  (377) 
Displacement of [3H]LSD from human recombinant 5HT2B receptor stably expressed in HEK cells

>  <parent_molecule_chembl_id>  (377) 
CHEMBL2442273

>  <canonical_smiles>  (377) 
N=C1NC(=O)/C(=C\c2c[nH]c3cc(Br)ccc23)N1

>  <standard_type>  (377) 
Ki

>  <standard_relation>  (377) 
=

>  <standard_value>  (377) 
269.0

>  <standard_units>  (377) 
nM

>  <target_pref_name>  (377) 
Serotonin 2b (5-HT2b) receptor

>  <target_chembl_id>  (377) 
CHEMBL1833

>  <target_organism>  (377) 
Homo sapiens

>  <pchembl_median>  (377) 
8.34

$$$$
CHEMBL2442270
     RDKit          2D

 17 19  0  0  0  0  0  0  0  0999 V2000
   -5.2802   -7.7620    0.0000 N   0  0  0  0  0  0  0  0  0  0  0  0
   -4.1655   -6.7583    0.0000 C   0  0  0  0  0  0  0  0  0  0  0  0
   -2.6983   -7.0701    0.0000 N   0  0  0  0  0  0  0  0  0  0  0  0
   -1.9483   -5.7711    0.0000 C   0  0  0  0  0  0  0  0  0  0  0  0
   -0.4565   -5.6143    0.0000 O   0  0  0  0  0  0  0  0  0  0  0  0
   -2.9520   -4.6564    0.0000 C   0  0  0  0  0  0  0  0  0  0  0  0
   -2.6401   -3.1891    0.0000 C   0  0  0  0  0  0  0  0  0  0  0  0
   -1.2135   -2.7256    0.0000 C   0  0  0  0  0  0  0  0  0  0  0  0
    0.0000   -3.6073    0.0000 C   0  0  0  0  0  0  0  0  0  0  0  0
    1.2135   -2.7256    0.0000 N   0  0  0  0  0  0  0  0  0  0  0  0
    0.7500   -1.2990    0.0000 C   0  0  0  0  0  0  0  0  0  0  0  0
    1.5000    0.0000    0.0000 C   0  0  0  0  0  0  0  0  0  0  0  0
    0.7500    1.2990    0.0000 C   0  0  0  0  0  0  0  0  0  0  0  0
   -0.7500    1.2990    0.0000 C   0  0  0  0  0  0  0  0  0  0  0  0
   -1.5000    0.0000    0.0000 C   0  0  0  0  0  0  0  0  0  0  0  0
   -0.7500   -1.2990    0.0000 C   0  0  0  0  0  0  0  0  0  0  0  0
   -4.3223   -5.2665    0.0000 N   0  0  0  0  0  0  0  0  0  0  0  0
  1  2  2  0
  2  3  1  0
  3  4  1  0
  4  5  2  0
  4  6  1  0
  6  7  2  0
  7  8  1  0
  8  9  2  0
  9 10  1  0
 10 11  1  0
 11 12  2  0
 12 13  1  0
 13 14  2  0
 14 15  1  0
 15 16  2  0
  6 17  1  0
 17  2  1  0
 16  8  1  0
 16 11  1  0
M  END
>  <assay_chembl_id>  (378) 
CHEMBL2445946

>  <assay_description>  (378) 
Displacement of [3H]LSD from human recombinant 5HT2B receptor stably expressed in HEK cells

>  <parent_molecule_chembl_id>  (378) 
CHEMBL2442270

>  <canonical_smiles>  (378) 
N=C1NC(=O)/C(=C\c2c[nH]c3ccccc23)N1

>  <standard_type>  (378) 
Ki

>  <standard_relation>  (378) 
=

>  <standard_value>  (378) 
232.0

>  <standard_units>  (378) 
nM

>  <target_pref_name>  (378) 
Serotonin 2b (5-HT2b) receptor

>  <target_chembl_id>  (378) 
CHEMBL1833

>  <target_organism>  (378) 
Homo sapiens

>  <pchembl_median>  (378) 
8.24

$$$$
CHEMBL2442275
     RDKit          2D

 19 21  0  0  0  0  0  0  0  0999 V2000
   -2.0882   -8.4404    0.0000 C   0  0  0  0  0  0  0  0  0  0  0  0
   -2.6983   -7.0701    0.0000 N   0  0  0  0  0  0  0  0  0  0  0  0
   -4.1655   -6.7583    0.0000 C   0  0  0  0  0  0  0  0  0  0  0  0
   -5.2802   -7.7620    0.0000 N   0  0  0  0  0  0  0  0  0  0  0  0
   -4.3223   -5.2665    0.0000 N   0  0  0  0  0  0  0  0  0  0  0  0
   -2.9520   -4.6564    0.0000 C   0  0  0  0  0  0  0  0  0  0  0  0
   -2.6401   -3.1891    0.0000 C   0  0  0  0  0  0  0  0  0  0  0  0
   -1.2135   -2.7256    0.0000 C   0  0  0  0  0  0  0  0  0  0  0  0
    0.0000   -3.6073    0.0000 C   0  0  0  0  0  0  0  0  0  0  0  0
    1.2135   -2.7256    0.0000 N   0  0  0  0  0  0  0  0  0  0  0  0
    0.7500   -1.2990    0.0000 C   0  0  0  0  0  0  0  0  0  0  0  0
    1.5000    0.0000    0.0000 C   0  0  0  0  0  0  0  0  0  0  0  0
    0.7500    1.2990    0.0000 C   0  0  0  0  0  0  0  0  0  0  0  0
   -0.7500    1.2990    0.0000 C   0  0  0  0  0  0  0  0  0  0  0  0
   -1.5000    0.0000    0.0000 C   0  0  0  0  0  0  0  0  0  0  0  0
   -3.0000    0.0000    0.0000 Br  0  0  0  0  0  0  0  0  0  0  0  0
   -0.7500   -1.2990    0.0000 C   0  0  0  0  0  0  0  0  0  0  0  0
   -1.9483   -5.7711    0.0000 C   0  0  0  0  0  0  0  0  0  0  0  0
   -0.4565   -5.6143    0.0000 O   0  0  0  0  0  0  0  0  0  0  0  0
  1  2  1  0
  2  3  1  0
  3  4  2  0
  3  5  1  0
  5  6  1  0
  6  7  2  0
  7  8  1  0
  8  9  2  0
  9 10  1  0
 10 11  1  0
 11 12  2  0
 12 13  1  0
 13 14  2  0
 14 15  1  0
 15 16  1  0
 15 17  2  0
  6 18  1  0
 18 19  2  0
 18  2  1  0
 17  8  1  0
 17 11  1  0
M  END
>  <assay_chembl_id>  (379) 
CHEMBL2445946

>  <assay_description>  (379) 
Displacement of [3H]LSD from human recombinant 5HT2B receptor stably expressed in HEK cells

>  <parent_molecule_chembl_id>  (379) 
CHEMBL2442275

>  <canonical_smiles>  (379) 
CN1C(=N)N/C(=C/c2c[nH]c3cccc(Br)c23)C1=O

>  <standard_type>  (379) 
Ki

>  <standard_relation>  (379) 
=

>  <standard_value>  (379) 
228.0

>  <standard_units>  (379) 
nM

>  <target_pref_name>  (379) 
Serotonin 2b (5-HT2b) receptor

>  <target_chembl_id>  (379) 
CHEMBL1833

>  <target_organism>  (379) 
Homo sapiens

>  <pchembl_median>  (379) 
8.17

$$$$
CHEMBL511879
     RDKit          2D

 19 21  0  0  0  0  0  0  0  0999 V2000
   -2.0882   -8.4404    0.0000 C   0  0  0  0  0  0  0  0  0  0  0  0
   -2.6983   -7.0701    0.0000 N   0  0  0  0  0  0  0  0  0  0  0  0
   -4.1655   -6.7583    0.0000 C   0  0  0  0  0  0  0  0  0  0  0  0
   -5.2802   -7.7620    0.0000 N   0  0  0  0  0  0  0  0  0  0  0  0
   -4.3223   -5.2665    0.0000 N   0  0  0  0  0  0  0  0  0  0  0  0
   -2.9520   -4.6564    0.0000 C   0  0  0  0  0  0  0  0  0  0  0  0
   -2.6401   -3.1891    0.0000 C   0  0  0  0  0  0  0  0  0  0  0  0
   -1.2135   -2.7256    0.0000 C   0  0  0  0  0  0  0  0  0  0  0  0
    0.0000   -3.6073    0.0000 C   0  0  0  0  0  0  0  0  0  0  0  0
    1.2135   -2.7256    0.0000 N   0  0  0  0  0  0  0  0  0  0  0  0
    0.7500   -1.2990    0.0000 C   0  0  0  0  0  0  0  0  0  0  0  0
    1.5000    0.0000    0.0000 C   0  0  0  0  0  0  0  0  0  0  0  0
    0.7500    1.2990    0.0000 C   0  0  0  0  0  0  0  0  0  0  0  0
    1.5000    2.5981    0.0000 Br  0  0  0  0  0  0  0  0  0  0  0  0
   -0.7500    1.2990    0.0000 C   0  0  0  0  0  0  0  0  0  0  0  0
   -1.5000    0.0000    0.0000 C   0  0  0  0  0  0  0  0  0  0  0  0
   -0.7500   -1.2990    0.0000 C   0  0  0  0  0  0  0  0  0  0  0  0
   -1.9483   -5.7711    0.0000 C   0  0  0  0  0  0  0  0  0  0  0  0
   -0.4565   -5.6143    0.0000 O   0  0  0  0  0  0  0  0  0  0  0  0
  1  2  1  0
  2  3  1  0
  3  4  2  0
  3  5  1  0
  5  6  1  0
  6  7  2  0
  7  8  1  0
  8  9  2  0
  9 10  1  0
 10 11  1  0
 11 12  2  0
 12 13  1  0
 13 14  1  0
 13 15  2  0
 15 16  1  0
 16 17  2  0
  6 18  1  0
 18 19  2  0
 18  2  1  0
 17  8  1  0
 17 11  1  0
M  END
>  <assay_chembl_id>  (380) 
CHEMBL2445946

>  <assay_description>  (380) 
Displacement of [3H]LSD from human recombinant 5HT2B receptor stably expressed in HEK cells

>  <parent_molecule_chembl_id>  (380) 
CHEMBL511879

>  <canonical_smiles>  (380) 
CN1C(=N)N/C(=C/c2c[nH]c3cc(Br)ccc23)C1=O

>  <standard_type>  (380) 
Ki

>  <standard_relation>  (380) 
=

>  <standard_value>  (380) 
190.0

>  <standard_units>  (380) 
nM

>  <target_pref_name>  (380) 
Serotonin 2b (5-HT2b) receptor

>  <target_chembl_id>  (380) 
CHEMBL1833

>  <target_organism>  (380) 
Homo sapiens

>  <pchembl_median>  (380) 
7.77

$$$$
CHEMBL2058705
     RDKit          2D

 19 21  0  0  0  0  0  0  0  0999 V2000
   -2.9699   -9.6540    0.0000 C   0  0  0  0  0  0  0  0  0  0  0  0
   -2.0882   -8.4404    0.0000 N   0  0  0  0  0  0  0  0  0  0  0  0
   -2.6983   -7.0701    0.0000 C   0  0  0  0  0  0  0  0  0  0  0  0
   -4.1655   -6.7583    0.0000 N   0  0  0  0  0  0  0  0  0  0  0  0
   -4.3223   -5.2665    0.0000 C   0  0  0  0  0  0  0  0  0  0  0  0
   -5.6213   -4.5165    0.0000 O   0  0  0  0  0  0  0  0  0  0  0  0
   -2.9520   -4.6564    0.0000 C   0  0  0  0  0  0  0  0  0  0  0  0
   -2.6401   -3.1891    0.0000 C   0  0  0  0  0  0  0  0  0  0  0  0
   -1.2135   -2.7256    0.0000 C   0  0  0  0  0  0  0  0  0  0  0  0
    0.0000   -3.6073    0.0000 C   0  0  0  0  0  0  0  0  0  0  0  0
    1.2135   -2.7256    0.0000 N   0  0  0  0  0  0  0  0  0  0  0  0
    0.7500   -1.2990    0.0000 C   0  0  0  0  0  0  0  0  0  0  0  0
    1.5000    0.0000    0.0000 C   0  0  0  0  0  0  0  0  0  0  0  0
    0.7500    1.2990    0.0000 C   0  0  0  0  0  0  0  0  0  0  0  0
    1.5000    2.5981    0.0000 Br  0  0  0  0  0  0  0  0  0  0  0  0
   -0.7500    1.2990    0.0000 C   0  0  0  0  0  0  0  0  0  0  0  0
   -1.5000    0.0000    0.0000 C   0  0  0  0  0  0  0  0  0  0  0  0
   -0.7500   -1.2990    0.0000 C   0  0  0  0  0  0  0  0  0  0  0  0
   -1.9483   -5.7711    0.0000 N   0  0  0  0  0  0  0  0  0  0  0  0
  1  2  1  0
  2  3  2  0
  3  4  1  0
  4  5  1  0
  5  6  2  0
  5  7  1  0
  7  8  2  0
  8  9  1  0
  9 10  2  0
 10 11  1  0
 11 12  1  0
 12 13  2  0
 13 14  1  0
 14 15  1  0
 14 16  2  0
 16 17  1  0
 17 18  2  0
  7 19  1  0
 19  3  1  0
 18  9  1  0
 18 12  1  0
M  END
>  <assay_chembl_id>  (381) 
CHEMBL2445946

>  <assay_description>  (381) 
Displacement of [3H]LSD from human recombinant 5HT2B receptor stably expressed in HEK cells

>  <parent_molecule_chembl_id>  (381) 
CHEMBL2058705

>  <canonical_smiles>  (381) 
C/N=C1\NC(=O)/C(=C/c2c[nH]c3cc(Br)ccc23)N1

>  <standard_type>  (381) 
Ki

>  <standard_relation>  (381) 
=

>  <standard_value>  (381) 
154.0

>  <standard_units>  (381) 
nM

>  <target_pref_name>  (381) 
Serotonin 2b (5-HT2b) receptor

>  <target_chembl_id>  (381) 
CHEMBL1833

>  <target_organism>  (381) 
Homo sapiens

>  <pchembl_median>  (381) 
7.68

$$$$
CHEMBL2058415
     RDKit          2D

 20 22  0  0  0  0  0  0  0  0999 V2000
   -4.9684   -9.2292    0.0000 C   0  0  0  0  0  0  0  0  0  0  0  0
   -5.2802   -7.7620    0.0000 N   0  0  0  0  0  0  0  0  0  0  0  0
   -4.1655   -6.7583    0.0000 C   0  0  0  0  0  0  0  0  0  0  0  0
   -2.6983   -7.0701    0.0000 N   0  0  0  0  0  0  0  0  0  0  0  0
   -1.9483   -5.7711    0.0000 C   0  0  0  0  0  0  0  0  0  0  0  0
   -0.4565   -5.6143    0.0000 O   0  0  0  0  0  0  0  0  0  0  0  0
   -2.9520   -4.6564    0.0000 C   0  0  0  0  0  0  0  0  0  0  0  0
   -2.6401   -3.1891    0.0000 C   0  0  0  0  0  0  0  0  0  0  0  0
   -1.2135   -2.7256    0.0000 C   0  0  0  0  0  0  0  0  0  0  0  0
    0.0000   -3.6073    0.0000 C   0  0  0  0  0  0  0  0  0  0  0  0
    1.2135   -2.7256    0.0000 N   0  0  0  0  0  0  0  0  0  0  0  0
    0.7500   -1.2990    0.0000 C   0  0  0  0  0  0  0  0  0  0  0  0
    1.5000    0.0000    0.0000 C   0  0  0  0  0  0  0  0  0  0  0  0
    0.7500    1.2990    0.0000 C   0  0  0  0  0  0  0  0  0  0  0  0
   -0.7500    1.2990    0.0000 C   0  0  0  0  0  0  0  0  0  0  0  0
   -1.5000    0.0000    0.0000 C   0  0  0  0  0  0  0  0  0  0  0  0
   -3.0000    0.0000    0.0000 Br  0  0  0  0  0  0  0  0  0  0  0  0
   -0.7500   -1.2990    0.0000 C   0  0  0  0  0  0  0  0  0  0  0  0
   -4.3223   -5.2665    0.0000 N   0  0  0  0  0  0  0  0  0  0  0  0
   -5.6213   -4.5165    0.0000 C   0  0  0  0  0  0  0  0  0  0  0  0
  1  2  1  0
  2  3  2  0
  3  4  1  0
  4  5  1  0
  5  6  2  0
  5  7  1  0
  7  8  2  0
  8  9  1  0
  9 10  2  0
 10 11  1  0
 11 12  1  0
 12 13  2  0
 13 14  1  0
 14 15  2  0
 15 16  1  0
 16 17  1  0
 16 18  2  0
  7 19  1  0
 19 20  1  0
 19  3  1  0
 18  9  1  0
 18 12  1  0
M  END
>  <assay_chembl_id>  (382) 
CHEMBL2445946

>  <assay_description>  (382) 
Displacement of [3H]LSD from human recombinant 5HT2B receptor stably expressed in HEK cells

>  <parent_molecule_chembl_id>  (382) 
CHEMBL2058415

>  <canonical_smiles>  (382) 
C/N=C1\NC(=O)/C(=C\c2c[nH]c3cccc(Br)c23)N1C

>  <standard_type>  (382) 
Ki

>  <standard_relation>  (382) 
=

>  <standard_value>  (382) 
99.0

>  <standard_units>  (382) 
nM

>  <target_pref_name>  (382) 
Serotonin 2b (5-HT2b) receptor

>  <target_chembl_id>  (382) 
CHEMBL1833

>  <target_organism>  (382) 
Homo sapiens

>  <pchembl_median>  (382) 
6.72

$$$$
CHEMBL2442276
     RDKit          2D

 19 21  0  0  0  0  0  0  0  0999 V2000
   -2.0882   -8.4404    0.0000 C   0  0  0  0  0  0  0  0  0  0  0  0
   -2.6983   -7.0701    0.0000 N   0  0  0  0  0  0  0  0  0  0  0  0
   -4.1655   -6.7583    0.0000 C   0  0  0  0  0  0  0  0  0  0  0  0
   -5.2802   -7.7620    0.0000 N   0  0  0  0  0  0  0  0  0  0  0  0
   -4.3223   -5.2665    0.0000 N   0  0  0  0  0  0  0  0  0  0  0  0
   -2.9520   -4.6564    0.0000 C   0  0  0  0  0  0  0  0  0  0  0  0
   -2.6401   -3.1891    0.0000 C   0  0  0  0  0  0  0  0  0  0  0  0
   -1.2135   -2.7256    0.0000 C   0  0  0  0  0  0  0  0  0  0  0  0
    0.0000   -3.6073    0.0000 C   0  0  0  0  0  0  0  0  0  0  0  0
    1.2135   -2.7256    0.0000 N   0  0  0  0  0  0  0  0  0  0  0  0
    0.7500   -1.2990    0.0000 C   0  0  0  0  0  0  0  0  0  0  0  0
    1.5000    0.0000    0.0000 C   0  0  0  0  0  0  0  0  0  0  0  0
    0.7500    1.2990    0.0000 C   0  0  0  0  0  0  0  0  0  0  0  0
   -0.7500    1.2990    0.0000 C   0  0  0  0  0  0  0  0  0  0  0  0
   -1.5000    2.5981    0.0000 Br  0  0  0  0  0  0  0  0  0  0  0  0
   -1.5000    0.0000    0.0000 C   0  0  0  0  0  0  0  0  0  0  0  0
   -0.7500   -1.2990    0.0000 C   0  0  0  0  0  0  0  0  0  0  0  0
   -1.9483   -5.7711    0.0000 C   0  0  0  0  0  0  0  0  0  0  0  0
   -0.4565   -5.6143    0.0000 O   0  0  0  0  0  0  0  0  0  0  0  0
  1  2  1  0
  2  3  1  0
  3  4  2  0
  3  5  1  0
  5  6  1  0
  6  7  2  0
  7  8  1  0
  8  9  2  0
  9 10  1  0
 10 11  1  0
 11 12  2  0
 12 13  1  0
 13 14  2  0
 14 15  1  0
 14 16  1  0
 16 17  2  0
  6 18  1  0
 18 19  2  0
 18  2  1  0
 17  8  1  0
 17 11  1  0
M  END
>  <assay_chembl_id>  (383) 
CHEMBL2445946

>  <assay_description>  (383) 
Displacement of [3H]LSD from human recombinant 5HT2B receptor stably expressed in HEK cells

>  <parent_molecule_chembl_id>  (383) 
CHEMBL2442276

>  <canonical_smiles>  (383) 
CN1C(=N)N/C(=C/c2c[nH]c3ccc(Br)cc23)C1=O

>  <standard_type>  (383) 
Ki

>  <standard_relation>  (383) 
=

>  <standard_value>  (383) 
94.0

>  <standard_units>  (383) 
nM

>  <target_pref_name>  (383) 
Serotonin 2b (5-HT2b) receptor

>  <target_chembl_id>  (383) 
CHEMBL1833

>  <target_organism>  (383) 
Homo sapiens

>  <pchembl_median>  (383) 
6.42

$$$$
CHEMBL2058704
     RDKit          2D

 19 21  0  0  0  0  0  0  0  0999 V2000
   -2.9699   -9.6540    0.0000 C   0  0  0  0  0  0  0  0  0  0  0  0
   -2.0882   -8.4404    0.0000 N   0  0  0  0  0  0  0  0  0  0  0  0
   -2.6983   -7.0701    0.0000 C   0  0  0  0  0  0  0  0  0  0  0  0
   -4.1655   -6.7583    0.0000 N   0  0  0  0  0  0  0  0  0  0  0  0
   -4.3223   -5.2665    0.0000 C   0  0  0  0  0  0  0  0  0  0  0  0
   -5.6213   -4.5165    0.0000 O   0  0  0  0  0  0  0  0  0  0  0  0
   -2.9520   -4.6564    0.0000 C   0  0  0  0  0  0  0  0  0  0  0  0
   -2.6401   -3.1891    0.0000 C   0  0  0  0  0  0  0  0  0  0  0  0
   -1.2135   -2.7256    0.0000 C   0  0  0  0  0  0  0  0  0  0  0  0
    0.0000   -3.6073    0.0000 C   0  0  0  0  0  0  0  0  0  0  0  0
    1.2135   -2.7256    0.0000 N   0  0  0  0  0  0  0  0  0  0  0  0
    0.7500   -1.2990    0.0000 C   0  0  0  0  0  0  0  0  0  0  0  0
    1.5000    0.0000    0.0000 C   0  0  0  0  0  0  0  0  0  0  0  0
    0.7500    1.2990    0.0000 C   0  0  0  0  0  0  0  0  0  0  0  0
   -0.7500    1.2990    0.0000 C   0  0  0  0  0  0  0  0  0  0  0  0
   -1.5000    2.5981    0.0000 Br  0  0  0  0  0  0  0  0  0  0  0  0
   -1.5000    0.0000    0.0000 C   0  0  0  0  0  0  0  0  0  0  0  0
   -0.7500   -1.2990    0.0000 C   0  0  0  0  0  0  0  0  0  0  0  0
   -1.9483   -5.7711    0.0000 N   0  0  0  0  0  0  0  0  0  0  0  0
  1  2  1  0
  2  3  2  0
  3  4  1  0
  4  5  1  0
  5  6  2  0
  5  7  1  0
  7  8  2  0
  8  9  1  0
  9 10  2  0
 10 11  1  0
 11 12  1  0
 12 13  2  0
 13 14  1  0
 14 15  2  0
 15 16  1  0
 15 17  1  0
 17 18  2  0
  7 19  1  0
 19  3  1  0
 18  9  1  0
 18 12  1  0
M  END
>  <assay_chembl_id>  (384) 
CHEMBL2445946

>  <assay_description>  (384) 
Displacement of [3H]LSD from human recombinant 5HT2B receptor stably expressed in HEK cells

>  <parent_molecule_chembl_id>  (384) 
CHEMBL2058704

>  <canonical_smiles>  (384) 
C/N=C1\NC(=O)/C(=C/c2c[nH]c3ccc(Br)cc23)N1

>  <standard_type>  (384) 
Ki

>  <standard_relation>  (384) 
=

>  <standard_value>  (384) 
93.0

>  <standard_units>  (384) 
nM

>  <target_pref_name>  (384) 
Serotonin 2b (5-HT2b) receptor

>  <target_chembl_id>  (384) 
CHEMBL1833

>  <target_organism>  (384) 
Homo sapiens

>  <pchembl_median>  (384) 
7.12

$$$$
CHEMBL2442272
     RDKit          2D

 18 20  0  0  0  0  0  0  0  0999 V2000
   -5.2802   -7.7620    0.0000 N   0  0  0  0  0  0  0  0  0  0  0  0
   -4.1655   -6.7583    0.0000 C   0  0  0  0  0  0  0  0  0  0  0  0
   -2.6983   -7.0701    0.0000 N   0  0  0  0  0  0  0  0  0  0  0  0
   -1.9483   -5.7711    0.0000 C   0  0  0  0  0  0  0  0  0  0  0  0
   -0.4565   -5.6143    0.0000 O   0  0  0  0  0  0  0  0  0  0  0  0
   -2.9520   -4.6564    0.0000 C   0  0  0  0  0  0  0  0  0  0  0  0
   -2.6401   -3.1891    0.0000 C   0  0  0  0  0  0  0  0  0  0  0  0
   -1.2135   -2.7256    0.0000 C   0  0  0  0  0  0  0  0  0  0  0  0
    0.0000   -3.6073    0.0000 C   0  0  0  0  0  0  0  0  0  0  0  0
    1.2135   -2.7256    0.0000 N   0  0  0  0  0  0  0  0  0  0  0  0
    0.7500   -1.2990    0.0000 C   0  0  0  0  0  0  0  0  0  0  0  0
    1.5000    0.0000    0.0000 C   0  0  0  0  0  0  0  0  0  0  0  0
    0.7500    1.2990    0.0000 C   0  0  0  0  0  0  0  0  0  0  0  0
   -0.7500    1.2990    0.0000 C   0  0  0  0  0  0  0  0  0  0  0  0
   -1.5000    2.5981    0.0000 Br  0  0  0  0  0  0  0  0  0  0  0  0
   -1.5000    0.0000    0.0000 C   0  0  0  0  0  0  0  0  0  0  0  0
   -0.7500   -1.2990    0.0000 C   0  0  0  0  0  0  0  0  0  0  0  0
   -4.3223   -5.2665    0.0000 N   0  0  0  0  0  0  0  0  0  0  0  0
  1  2  2  0
  2  3  1  0
  3  4  1  0
  4  5  2  0
  4  6  1  0
  6  7  2  0
  7  8  1  0
  8  9  2  0
  9 10  1  0
 10 11  1  0
 11 12  2  0
 12 13  1  0
 13 14  2  0
 14 15  1  0
 14 16  1  0
 16 17  2  0
  6 18  1  0
 18  2  1  0
 17  8  1  0
 17 11  1  0
M  END
>  <assay_chembl_id>  (385) 
CHEMBL2445946

>  <assay_description>  (385) 
Displacement of [3H]LSD from human recombinant 5HT2B receptor stably expressed in HEK cells

>  <parent_molecule_chembl_id>  (385) 
CHEMBL2442272

>  <canonical_smiles>  (385) 
N=C1NC(=O)/C(=C\c2c[nH]c3ccc(Br)cc23)N1

>  <standard_type>  (385) 
Ki

>  <standard_relation>  (385) 
=

>  <standard_value>  (385) 
51.0

>  <standard_units>  (385) 
nM

>  <target_pref_name>  (385) 
Serotonin 2b (5-HT2b) receptor

>  <target_chembl_id>  (385) 
CHEMBL1833

>  <target_organism>  (385) 
Homo sapiens

>  <pchembl_median>  (385) 
6.47

$$$$
CHEMBL2058703
     RDKit          2D

 19 21  0  0  0  0  0  0  0  0999 V2000
   -2.9699   -9.6540    0.0000 C   0  0  0  0  0  0  0  0  0  0  0  0
   -2.0882   -8.4404    0.0000 N   0  0  0  0  0  0  0  0  0  0  0  0
   -2.6983   -7.0701    0.0000 C   0  0  0  0  0  0  0  0  0  0  0  0
   -4.1655   -6.7583    0.0000 N   0  0  0  0  0  0  0  0  0  0  0  0
   -4.3223   -5.2665    0.0000 C   0  0  0  0  0  0  0  0  0  0  0  0
   -5.6213   -4.5165    0.0000 O   0  0  0  0  0  0  0  0  0  0  0  0
   -2.9520   -4.6564    0.0000 C   0  0  0  0  0  0  0  0  0  0  0  0
   -2.6401   -3.1891    0.0000 C   0  0  0  0  0  0  0  0  0  0  0  0
   -1.2135   -2.7256    0.0000 C   0  0  0  0  0  0  0  0  0  0  0  0
    0.0000   -3.6073    0.0000 C   0  0  0  0  0  0  0  0  0  0  0  0
    1.2135   -2.7256    0.0000 N   0  0  0  0  0  0  0  0  0  0  0  0
    0.7500   -1.2990    0.0000 C   0  0  0  0  0  0  0  0  0  0  0  0
    1.5000    0.0000    0.0000 C   0  0  0  0  0  0  0  0  0  0  0  0
    0.7500    1.2990    0.0000 C   0  0  0  0  0  0  0  0  0  0  0  0
   -0.7500    1.2990    0.0000 C   0  0  0  0  0  0  0  0  0  0  0  0
   -1.5000    0.0000    0.0000 C   0  0  0  0  0  0  0  0  0  0  0  0
   -3.0000    0.0000    0.0000 Br  0  0  0  0  0  0  0  0  0  0  0  0
   -0.7500   -1.2990    0.0000 C   0  0  0  0  0  0  0  0  0  0  0  0
   -1.9483   -5.7711    0.0000 N   0  0  0  0  0  0  0  0  0  0  0  0
  1  2  1  0
  2  3  2  0
  3  4  1  0
  4  5  1  0
  5  6  2  0
  5  7  1  0
  7  8  2  0
  8  9  1  0
  9 10  2  0
 10 11  1  0
 11 12  1  0
 12 13  2  0
 13 14  1  0
 14 15  2  0
 15 16  1  0
 16 17  1  0
 16 18  2  0
  7 19  1  0
 19  3  1  0
 18  9  1  0
 18 12  1  0
M  END
>  <assay_chembl_id>  (386) 
CHEMBL2445946

>  <assay_description>  (386) 
Displacement of [3H]LSD from human recombinant 5HT2B receptor stably expressed in HEK cells

>  <parent_molecule_chembl_id>  (386) 
CHEMBL2058703

>  <canonical_smiles>  (386) 
C/N=C1\NC(=O)/C(=C/c2c[nH]c3cccc(Br)c23)N1

>  <standard_type>  (386) 
Ki

>  <standard_relation>  (386) 
=

>  <standard_value>  (386) 
50.0

>  <standard_units>  (386) 
nM

>  <target_pref_name>  (386) 
Serotonin 2b (5-HT2b) receptor

>  <target_chembl_id>  (386) 
CHEMBL1833

>  <target_organism>  (386) 
Homo sapiens

>  <pchembl_median>  (386) 
6.33

$$$$
CHEMBL3092763
     RDKit          2D

 23 24  0  0  0  0  0  0  0  0999 V2000
    3.6401    0.0000    0.0000 Cl  0  0  0  0  0  0  0  0  0  0  0  0
   -6.1084  -12.0149    0.0000 N   0  0  0  0  0  0  0  0  0  0  0  0
   -4.7381  -11.4047    0.0000 C   0  0  0  0  0  0  0  0  0  0  0  0
   -3.5246  -12.2864    0.0000 N   0  0  0  0  0  0  0  0  0  0  0  0
   -4.5813   -9.9130    0.0000 N   0  0  0  0  0  0  0  0  0  0  0  0
   -3.2110   -9.3029    0.0000 C   0  0  0  0  0  0  0  0  0  0  0  0
   -1.9975  -10.1845    0.0000 O   0  0  0  0  0  0  0  0  0  0  0  0
   -3.0542   -7.8111    0.0000 C   0  0  0  0  0  0  0  0  0  0  0  0
   -1.6839   -7.2010    0.0000 C   0  0  0  0  0  0  0  0  0  0  0  0
   -1.5271   -5.7092    0.0000 C   0  0  0  0  0  0  0  0  0  0  0  0
   -2.7406   -4.8275    0.0000 C   0  0  0  0  0  0  0  0  0  0  0  0
   -2.5838   -3.3357    0.0000 C   0  0  0  0  0  0  0  0  0  0  0  0
   -1.2135   -2.7256    0.0000 C   0  0  0  0  0  0  0  0  0  0  0  0
   -0.0000   -3.6073    0.0000 C   0  0  0  0  0  0  0  0  0  0  0  0
   -0.1568   -5.0991    0.0000 C   0  0  0  0  0  0  0  0  0  0  0  0
    1.2135   -2.7256    0.0000 C   0  0  0  0  0  0  0  0  0  0  0  0
    2.6401   -3.1891    0.0000 O   0  0  0  0  0  0  0  0  0  0  0  0
    0.7500   -1.2990    0.0000 C   0  0  0  0  0  0  0  0  0  0  0  0
    1.5000    0.0000    0.0000 C   0  0  0  0  0  0  0  0  0  0  0  0
    0.7500    1.2990    0.0000 C   0  0  0  0  0  0  0  0  0  0  0  0
   -0.7500    1.2990    0.0000 C   0  0  0  0  0  0  0  0  0  0  0  0
   -1.5000    0.0000    0.0000 C   0  0  0  0  0  0  0  0  0  0  0  0
   -0.7500   -1.2990    0.0000 C   0  0  0  0  0  0  0  0  0  0  0  0
  2  3  1  0
  3  4  1  0
  3  5  2  3
  5  6  1  0
  6  7  2  0
  6  8  1  0
  8  9  2  0
  9 10  1  0
 10 11  2  0
 11 12  1  0
 12 13  2  0
 13 14  1  0
 14 15  2  0
 14 16  1  0
 16 17  1  0
 16 18  1  0
 18 19  2  0
 19 20  1  0
 20 21  2  0
 21 22  1  0
 22 23  2  0
 15 10  1  0
 23 18  1  0
 23 13  1  0
M  END
>  <assay_chembl_id>  (387) 
CHEMBL3095680

>  <assay_description>  (387) 
Displacement of [3H]Mesulergine from human 5-HT2B receptor expressed in HEK293 cells by liquid scintillation counting analysis

>  <parent_molecule_chembl_id>  (387) 
CHEMBL3139089

>  <canonical_smiles>  (387) 
Cl.NC(N)=NC(=O)/C=C/c1ccc2c(c1)C(O)c1ccccc1-2

>  <standard_type>  (387) 
Ki

>  <standard_relation>  (387) 
=

>  <standard_value>  (387) 
52.0

>  <standard_units>  (387) 
nM

>  <target_pref_name>  (387) 
Serotonin 2b (5-HT2b) receptor

>  <target_chembl_id>  (387) 
CHEMBL1833

>  <target_organism>  (387) 
Homo sapiens

>  <pchembl_median>  (387) 
7.21

$$$$
CHEMBL3092762
     RDKit          2D

 20 21  0  0  0  0  0  0  0  0999 V2000
    0.0000    2.2990    0.0000 Cl  0  0  0  0  0  0  0  0  0  0  0  0
    7.7515   -2.7926    0.0000 N   0  0  0  0  0  0  0  0  0  0  0  0
    6.3812   -2.1825    0.0000 C   0  0  0  0  0  0  0  0  0  0  0  0
    6.2244   -0.6907    0.0000 N   0  0  0  0  0  0  0  0  0  0  0  0
    5.1677   -3.0642    0.0000 N   0  0  0  0  0  0  0  0  0  0  0  0
    3.7974   -2.4540    0.0000 C   0  0  0  0  0  0  0  0  0  0  0  0
    3.6406   -0.9623    0.0000 O   0  0  0  0  0  0  0  0  0  0  0  0
    2.5838   -3.3357    0.0000 C   0  0  0  0  0  0  0  0  0  0  0  0
    2.7406   -4.8275    0.0000 C   0  0  0  0  0  0  0  0  0  0  0  0
    1.5271   -5.7092    0.0000 C   0  0  0  0  0  0  0  0  0  0  0  0
    0.1568   -5.0991    0.0000 C   0  0  0  0  0  0  0  0  0  0  0  0
    0.0000   -3.6073    0.0000 C   0  0  0  0  0  0  0  0  0  0  0  0
    1.2135   -2.7256    0.0000 C   0  0  0  0  0  0  0  0  0  0  0  0
    0.7500   -1.2990    0.0000 C   0  0  0  0  0  0  0  0  0  0  0  0
    1.5000    0.0000    0.0000 C   0  0  0  0  0  0  0  0  0  0  0  0
    0.7500    1.2990    0.0000 C   0  0  0  0  0  0  0  0  0  0  0  0
   -0.7500    1.2990    0.0000 C   0  0  0  0  0  0  0  0  0  0  0  0
   -1.5000    0.0000    0.0000 C   0  0  0  0  0  0  0  0  0  0  0  0
   -0.7500   -1.2990    0.0000 C   0  0  0  0  0  0  0  0  0  0  0  0
   -1.2135   -2.7256    0.0000 C   0  0  0  0  0  0  0  0  0  0  0  0
  2  3  1  0
  3  4  1  0
  3  5  2  3
  5  6  1  0
  6  7  2  0
  6  8  1  0
  8  9  2  0
  9 10  1  0
 10 11  2  0
 11 12  1  0
 12 13  2  0
 13 14  1  0
 14 15  2  0
 15 16  1  0
 16 17  2  0
 17 18  1  0
 18 19  2  0
 19 20  1  0
 13  8  1  0
 19 14  1  0
 20 12  1  0
M  END
>  <assay_chembl_id>  (388) 
CHEMBL3095680

>  <assay_description>  (388) 
Displacement of [3H]Mesulergine from human 5-HT2B receptor expressed in HEK293 cells by liquid scintillation counting analysis

>  <parent_molecule_chembl_id>  (388) 
CHEMBL3139190

>  <canonical_smiles>  (388) 
Cl.NC(N)=NC(=O)c1cccc2c1-c1ccccc1C2

>  <standard_type>  (388) 
Ki

>  <standard_relation>  (388) 
=

>  <standard_value>  (388) 
27.4

>  <standard_units>  (388) 
nM

>  <target_pref_name>  (388) 
Serotonin 2b (5-HT2b) receptor

>  <target_chembl_id>  (388) 
CHEMBL1833

>  <target_organism>  (388) 
Homo sapiens

>  <pchembl_median>  (388) 
7.52

$$$$
CHEMBL3092761
     RDKit          2D

 21 22  0  0  0  0  0  0  0  0999 V2000
    7.8516    0.0000    0.0000 Cl  0  0  0  0  0  0  0  0  0  0  0  0
    5.7949   -9.0313    0.0000 N   0  0  0  0  0  0  0  0  0  0  0  0
    5.6381   -7.5395    0.0000 C   0  0  0  0  0  0  0  0  0  0  0  0
    6.8516   -6.6578    0.0000 N   0  0  0  0  0  0  0  0  0  0  0  0
    4.2677   -6.9294    0.0000 N   0  0  0  0  0  0  0  0  0  0  0  0
    4.1110   -5.4376    0.0000 C   0  0  0  0  0  0  0  0  0  0  0  0
    5.3245   -4.5559    0.0000 O   0  0  0  0  0  0  0  0  0  0  0  0
    2.7406   -4.8275    0.0000 C   0  0  0  0  0  0  0  0  0  0  0  0
    1.5271   -5.7092    0.0000 C   0  0  0  0  0  0  0  0  0  0  0  0
    0.1568   -5.0991    0.0000 C   0  0  0  0  0  0  0  0  0  0  0  0
    0.0000   -3.6073    0.0000 C   0  0  0  0  0  0  0  0  0  0  0  0
    1.2135   -2.7256    0.0000 C   0  0  0  0  0  0  0  0  0  0  0  0
    2.5838   -3.3357    0.0000 C   0  0  0  0  0  0  0  0  0  0  0  0
    0.7500   -1.2990    0.0000 C   0  0  0  0  0  0  0  0  0  0  0  0
    1.5000    0.0000    0.0000 C   0  0  0  0  0  0  0  0  0  0  0  0
    0.7500    1.2990    0.0000 C   0  0  0  0  0  0  0  0  0  0  0  0
   -0.7500    1.2990    0.0000 C   0  0  0  0  0  0  0  0  0  0  0  0
   -1.5000    0.0000    0.0000 C   0  0  0  0  0  0  0  0  0  0  0  0
   -0.7500   -1.2990    0.0000 C   0  0  0  0  0  0  0  0  0  0  0  0
   -1.2135   -2.7256    0.0000 C   0  0  0  0  0  0  0  0  0  0  0  0
   -2.6401   -3.1891    0.0000 O   0  0  0  0  0  0  0  0  0  0  0  0
  2  3  1  0
  3  4  1  0
  3  5  2  3
  5  6  1  0
  6  7  2  0
  6  8  1  0
  8  9  2  0
  9 10  1  0
 10 11  2  0
 11 12  1  0
 12 13  2  0
 12 14  1  0
 14 15  2  0
 15 16  1  0
 16 17  2  0
 17 18  1  0
 18 19  2  0
 19 20  1  0
 20 21  1  0
 13  8  1  0
 19 14  1  0
 20 11  1  0
M  END
>  <assay_chembl_id>  (389) 
CHEMBL3095680

>  <assay_description>  (389) 
Displacement of [3H]Mesulergine from human 5-HT2B receptor expressed in HEK293 cells by liquid scintillation counting analysis

>  <parent_molecule_chembl_id>  (389) 
CHEMBL3139074

>  <canonical_smiles>  (389) 
Cl.NC(N)=NC(=O)c1ccc2c(c1)-c1ccccc1C2O

>  <standard_type>  (389) 
Ki

>  <standard_relation>  (389) 
=

>  <standard_value>  (389) 
86.8

>  <standard_units>  (389) 
nM

>  <target_pref_name>  (389) 
Serotonin 2b (5-HT2b) receptor

>  <target_chembl_id>  (389) 
CHEMBL1833

>  <target_organism>  (389) 
Homo sapiens

>  <pchembl_median>  (389) 
6.63

$$$$
CHEMBL3092760
     RDKit          2D

 20 21  0  0  0  0  0  0  0  0999 V2000
    4.4838    0.0000    0.0000 Cl  0  0  0  0  0  0  0  0  0  0  0  0
    1.9567   -9.8460    0.0000 N   0  0  0  0  0  0  0  0  0  0  0  0
    2.1135   -8.3542    0.0000 C   0  0  0  0  0  0  0  0  0  0  0  0
    3.4838   -7.7441    0.0000 N   0  0  0  0  0  0  0  0  0  0  0  0
    0.8999   -7.4725    0.0000 N   0  0  0  0  0  0  0  0  0  0  0  0
    1.0567   -5.9808    0.0000 C   0  0  0  0  0  0  0  0  0  0  0  0
    2.4271   -5.3707    0.0000 O   0  0  0  0  0  0  0  0  0  0  0  0
   -0.1568   -5.0991    0.0000 C   0  0  0  0  0  0  0  0  0  0  0  0
   -1.5271   -5.7092    0.0000 C   0  0  0  0  0  0  0  0  0  0  0  0
   -2.7406   -4.8275    0.0000 C   0  0  0  0  0  0  0  0  0  0  0  0
   -2.5838   -3.3357    0.0000 C   0  0  0  0  0  0  0  0  0  0  0  0
   -1.2135   -2.7256    0.0000 C   0  0  0  0  0  0  0  0  0  0  0  0
   -0.0000   -3.6073    0.0000 C   0  0  0  0  0  0  0  0  0  0  0  0
    1.2135   -2.7256    0.0000 C   0  0  0  0  0  0  0  0  0  0  0  0
    0.7500   -1.2990    0.0000 C   0  0  0  0  0  0  0  0  0  0  0  0
    1.5000    0.0000    0.0000 C   0  0  0  0  0  0  0  0  0  0  0  0
    0.7500    1.2990    0.0000 C   0  0  0  0  0  0  0  0  0  0  0  0
   -0.7500    1.2990    0.0000 C   0  0  0  0  0  0  0  0  0  0  0  0
   -1.5000    0.0000    0.0000 C   0  0  0  0  0  0  0  0  0  0  0  0
   -0.7500   -1.2990    0.0000 C   0  0  0  0  0  0  0  0  0  0  0  0
  2  3  1  0
  3  4  1  0
  3  5  2  3
  5  6  1  0
  6  7  2  0
  6  8  1  0
  8  9  2  0
  9 10  1  0
 10 11  2  0
 11 12  1  0
 12 13  2  0
 13 14  1  0
 14 15  1  0
 15 16  2  0
 16 17  1  0
 17 18  2  0
 18 19  1  0
 19 20  2  0
 13  8  1  0
 20 15  1  0
 20 12  1  0
M  END
>  <assay_chembl_id>  (390) 
CHEMBL3095680

>  <assay_description>  (390) 
Displacement of [3H]Mesulergine from human 5-HT2B receptor expressed in HEK293 cells by liquid scintillation counting analysis

>  <parent_molecule_chembl_id>  (390) 
CHEMBL3139189

>  <canonical_smiles>  (390) 
Cl.NC(N)=NC(=O)c1cccc2c1Cc1ccccc1-2

>  <standard_type>  (390) 
Ki

>  <standard_relation>  (390) 
=

>  <standard_value>  (390) 
1.1

>  <standard_units>  (390) 
nM

>  <target_pref_name>  (390) 
Serotonin 2b (5-HT2b) receptor

>  <target_chembl_id>  (390) 
CHEMBL1833

>  <target_organism>  (390) 
Homo sapiens

>  <pchembl_median>  (390) 
7.22

$$$$
CHEMBL3092759
     RDKit          2D

 21 22  0  0  0  0  0  0  0  0999 V2000
    3.6401    0.0000    0.0000 Cl  0  0  0  0  0  0  0  0  0  0  0  0
   -4.5813   -9.9130    0.0000 N   0  0  0  0  0  0  0  0  0  0  0  0
   -3.2110   -9.3029    0.0000 C   0  0  0  0  0  0  0  0  0  0  0  0
   -1.9975  -10.1845    0.0000 N   0  0  0  0  0  0  0  0  0  0  0  0
   -3.0542   -7.8111    0.0000 N   0  0  0  0  0  0  0  0  0  0  0  0
   -1.6839   -7.2010    0.0000 C   0  0  0  0  0  0  0  0  0  0  0  0
   -0.4704   -8.0826    0.0000 O   0  0  0  0  0  0  0  0  0  0  0  0
   -1.5271   -5.7092    0.0000 C   0  0  0  0  0  0  0  0  0  0  0  0
   -2.7406   -4.8275    0.0000 C   0  0  0  0  0  0  0  0  0  0  0  0
   -2.5838   -3.3357    0.0000 C   0  0  0  0  0  0  0  0  0  0  0  0
   -1.2135   -2.7256    0.0000 C   0  0  0  0  0  0  0  0  0  0  0  0
   -0.0000   -3.6073    0.0000 C   0  0  0  0  0  0  0  0  0  0  0  0
   -0.1568   -5.0991    0.0000 C   0  0  0  0  0  0  0  0  0  0  0  0
    1.2135   -2.7256    0.0000 C   0  0  0  0  0  0  0  0  0  0  0  0
    2.6401   -3.1891    0.0000 O   0  0  0  0  0  0  0  0  0  0  0  0
    0.7500   -1.2990    0.0000 C   0  0  0  0  0  0  0  0  0  0  0  0
    1.5000    0.0000    0.0000 C   0  0  0  0  0  0  0  0  0  0  0  0
    0.7500    1.2990    0.0000 C   0  0  0  0  0  0  0  0  0  0  0  0
   -0.7500    1.2990    0.0000 C   0  0  0  0  0  0  0  0  0  0  0  0
   -1.5000    0.0000    0.0000 C   0  0  0  0  0  0  0  0  0  0  0  0
   -0.7500   -1.2990    0.0000 C   0  0  0  0  0  0  0  0  0  0  0  0
  2  3  1  0
  3  4  1  0
  3  5  2  3
  5  6  1  0
  6  7  2  0
  6  8  1  0
  8  9  2  0
  9 10  1  0
 10 11  2  0
 11 12  1  0
 12 13  2  0
 12 14  1  0
 14 15  1  0
 14 16  1  0
 16 17  2  0
 17 18  1  0
 18 19  2  0
 19 20  1  0
 20 21  2  0
 13  8  1  0
 21 16  1  0
 21 11  1  0
M  END
>  <assay_chembl_id>  (391) 
CHEMBL3095680

>  <assay_description>  (391) 
Displacement of [3H]Mesulergine from human 5-HT2B receptor expressed in HEK293 cells by liquid scintillation counting analysis

>  <parent_molecule_chembl_id>  (391) 
CHEMBL3139188

>  <canonical_smiles>  (391) 
Cl.NC(N)=NC(=O)c1ccc2c(c1)C(O)c1ccccc1-2

>  <standard_type>  (391) 
Ki

>  <standard_relation>  (391) 
=

>  <standard_value>  (391) 
1.8

>  <standard_units>  (391) 
nM

>  <target_pref_name>  (391) 
Serotonin 2b (5-HT2b) receptor

>  <target_chembl_id>  (391) 
CHEMBL1833

>  <target_organism>  (391) 
Homo sapiens

>  <pchembl_median>  (391) 
7.28

$$$$
CHEMBL3092758
     RDKit          2D

 20 22  0  0  0  0  0  0  0  0999 V2000
   -4.5813   -9.9130    0.0000 N   0  0  0  0  0  0  0  0  0  0  0  0
   -3.2110   -9.3029    0.0000 C   0  0  0  0  0  0  0  0  0  0  0  0
   -1.9975  -10.1845    0.0000 N   0  0  0  0  0  0  0  0  0  0  0  0
   -3.0542   -7.8111    0.0000 N   0  0  0  0  0  0  0  0  0  0  0  0
   -1.6839   -7.2010    0.0000 C   0  0  0  0  0  0  0  0  0  0  0  0
   -0.4704   -8.0826    0.0000 O   0  0  0  0  0  0  0  0  0  0  0  0
   -1.5271   -5.7092    0.0000 C   0  0  0  0  0  0  0  0  0  0  0  0
   -2.7406   -4.8275    0.0000 C   0  0  0  0  0  0  0  0  0  0  0  0
   -2.5838   -3.3357    0.0000 C   0  0  0  0  0  0  0  0  0  0  0  0
   -1.2135   -2.7256    0.0000 C   0  0  0  0  0  0  0  0  0  0  0  0
   -0.0000   -3.6073    0.0000 C   0  0  0  0  0  0  0  0  0  0  0  0
   -0.1568   -5.0991    0.0000 C   0  0  0  0  0  0  0  0  0  0  0  0
    1.2135   -2.7256    0.0000 C   0  0  0  0  0  0  0  0  0  0  0  0
    2.6401   -3.1891    0.0000 O   0  0  0  0  0  0  0  0  0  0  0  0
    0.7500   -1.2990    0.0000 C   0  0  0  0  0  0  0  0  0  0  0  0
    1.5000    0.0000    0.0000 C   0  0  0  0  0  0  0  0  0  0  0  0
    0.7500    1.2990    0.0000 C   0  0  0  0  0  0  0  0  0  0  0  0
   -0.7500    1.2990    0.0000 C   0  0  0  0  0  0  0  0  0  0  0  0
   -1.5000    0.0000    0.0000 C   0  0  0  0  0  0  0  0  0  0  0  0
   -0.7500   -1.2990    0.0000 C   0  0  0  0  0  0  0  0  0  0  0  0
  1  2  1  0
  2  3  1  0
  2  4  2  3
  4  5  1  0
  5  6  2  0
  5  7  1  0
  7  8  2  0
  8  9  1  0
  9 10  2  0
 10 11  1  0
 11 12  2  0
 11 13  1  0
 13 14  2  0
 13 15  1  0
 15 16  2  0
 16 17  1  0
 17 18  2  0
 18 19  1  0
 19 20  2  0
 12  7  1  0
 20 15  1  0
 20 10  1  0
M  END
>  <assay_chembl_id>  (392) 
CHEMBL3095680

>  <assay_description>  (392) 
Displacement of [3H]Mesulergine from human 5-HT2B receptor expressed in HEK293 cells by liquid scintillation counting analysis

>  <parent_molecule_chembl_id>  (392) 
CHEMBL3092758

>  <canonical_smiles>  (392) 
NC(N)=NC(=O)c1ccc2c(c1)C(=O)c1ccccc1-2

>  <standard_type>  (392) 
Ki

>  <standard_relation>  (392) 
=

>  <standard_value>  (392) 
0.4

>  <standard_units>  (392) 
nM

>  <target_pref_name>  (392) 
Serotonin 2b (5-HT2b) receptor

>  <target_chembl_id>  (392) 
CHEMBL1833

>  <target_organism>  (392) 
Homo sapiens

>  <pchembl_median>  (392) 
7.78

$$$$
CHEMBL3092757
     RDKit          2D

 21 22  0  0  0  0  0  0  0  0999 V2000
    4.0000    0.0000    0.0000 Cl  0  0  0  0  0  0  0  0  0  0  0  0
    0.7500  -11.6913    0.0000 N   0  0  0  0  0  0  0  0  0  0  0  0
    1.5000  -10.3923    0.0000 C   0  0  0  0  0  0  0  0  0  0  0  0
    3.0000  -10.3923    0.0000 N   0  0  0  0  0  0  0  0  0  0  0  0
    0.7500   -9.0933    0.0000 N   0  0  0  0  0  0  0  0  0  0  0  0
    1.5000   -7.7942    0.0000 C   0  0  0  0  0  0  0  0  0  0  0  0
    3.0000   -7.7942    0.0000 O   0  0  0  0  0  0  0  0  0  0  0  0
    0.7500   -6.4952    0.0000 C   0  0  0  0  0  0  0  0  0  0  0  0
   -0.7500   -6.4952    0.0000 C   0  0  0  0  0  0  0  0  0  0  0  0
   -1.5000   -5.1962    0.0000 C   0  0  0  0  0  0  0  0  0  0  0  0
   -0.7500   -3.8971    0.0000 C   0  0  0  0  0  0  0  0  0  0  0  0
    0.7500   -3.8971    0.0000 C   0  0  0  0  0  0  0  0  0  0  0  0
    1.5000   -5.1962    0.0000 C   0  0  0  0  0  0  0  0  0  0  0  0
    1.5000   -2.5981    0.0000 O   0  0  0  0  0  0  0  0  0  0  0  0
    0.7500   -1.2990    0.0000 C   0  0  0  0  0  0  0  0  0  0  0  0
    1.5000    0.0000    0.0000 C   0  0  0  0  0  0  0  0  0  0  0  0
    0.7500    1.2990    0.0000 C   0  0  0  0  0  0  0  0  0  0  0  0
   -0.7500    1.2990    0.0000 C   0  0  0  0  0  0  0  0  0  0  0  0
   -1.5000    0.0000    0.0000 C   0  0  0  0  0  0  0  0  0  0  0  0
   -0.7500   -1.2990    0.0000 C   0  0  0  0  0  0  0  0  0  0  0  0
   -1.5000   -2.5981    0.0000 N   0  0  0  0  0  0  0  0  0  0  0  0
  2  3  1  0
  3  4  1  0
  3  5  2  3
  5  6  1  0
  6  7  2  0
  6  8  1  0
  8  9  2  0
  9 10  1  0
 10 11  2  0
 11 12  1  0
 12 13  2  0
 12 14  1  0
 14 15  1  0
 15 16  2  0
 16 17  1  0
 17 18  2  0
 18 19  1  0
 19 20  2  0
 20 21  1  0
 13  8  1  0
 20 15  1  0
 21 11  1  0
M  END
>  <assay_chembl_id>  (393) 
CHEMBL3095680

>  <assay_description>  (393) 
Displacement of [3H]Mesulergine from human 5-HT2B receptor expressed in HEK293 cells by liquid scintillation counting analysis

>  <parent_molecule_chembl_id>  (393) 
CHEMBL3139241

>  <canonical_smiles>  (393) 
Cl.NC(N)=NC(=O)c1ccc2c(c1)Oc1ccccc1N2

>  <standard_type>  (393) 
Ki

>  <standard_relation>  (393) 
=

>  <standard_value>  (393) 
2.4

>  <standard_units>  (393) 
nM

>  <target_pref_name>  (393) 
Serotonin 2b (5-HT2b) receptor

>  <target_chembl_id>  (393) 
CHEMBL1833

>  <target_organism>  (393) 
Homo sapiens

>  <pchembl_median>  (393) 
5.39

$$$$
CHEMBL3092756
     RDKit          2D

 21 22  0  0  0  0  0  0  0  0999 V2000
    4.0000    0.0000    0.0000 Cl  0  0  0  0  0  0  0  0  0  0  0  0
    0.7500  -11.6913    0.0000 N   0  0  0  0  0  0  0  0  0  0  0  0
    1.5000  -10.3923    0.0000 C   0  0  0  0  0  0  0  0  0  0  0  0
    3.0000  -10.3923    0.0000 N   0  0  0  0  0  0  0  0  0  0  0  0
    0.7500   -9.0933    0.0000 N   0  0  0  0  0  0  0  0  0  0  0  0
    1.5000   -7.7942    0.0000 C   0  0  0  0  0  0  0  0  0  0  0  0
    3.0000   -7.7942    0.0000 O   0  0  0  0  0  0  0  0  0  0  0  0
    0.7500   -6.4952    0.0000 C   0  0  0  0  0  0  0  0  0  0  0  0
   -0.7500   -6.4952    0.0000 C   0  0  0  0  0  0  0  0  0  0  0  0
   -1.5000   -5.1962    0.0000 C   0  0  0  0  0  0  0  0  0  0  0  0
   -0.7500   -3.8971    0.0000 C   0  0  0  0  0  0  0  0  0  0  0  0
    0.7500   -3.8971    0.0000 C   0  0  0  0  0  0  0  0  0  0  0  0
    1.5000   -5.1962    0.0000 C   0  0  0  0  0  0  0  0  0  0  0  0
    1.5000   -2.5981    0.0000 N   0  0  0  0  0  0  0  0  0  0  0  0
    0.7500   -1.2990    0.0000 C   0  0  0  0  0  0  0  0  0  0  0  0
    1.5000    0.0000    0.0000 C   0  0  0  0  0  0  0  0  0  0  0  0
    0.7500    1.2990    0.0000 C   0  0  0  0  0  0  0  0  0  0  0  0
   -0.7500    1.2990    0.0000 C   0  0  0  0  0  0  0  0  0  0  0  0
   -1.5000    0.0000    0.0000 C   0  0  0  0  0  0  0  0  0  0  0  0
   -0.7500   -1.2990    0.0000 C   0  0  0  0  0  0  0  0  0  0  0  0
   -1.5000   -2.5981    0.0000 O   0  0  0  0  0  0  0  0  0  0  0  0
  2  3  1  0
  3  4  1  0
  3  5  2  3
  5  6  1  0
  6  7  2  0
  6  8  1  0
  8  9  2  0
  9 10  1  0
 10 11  2  0
 11 12  1  0
 12 13  2  0
 12 14  1  0
 14 15  1  0
 15 16  2  0
 16 17  1  0
 17 18  2  0
 18 19  1  0
 19 20  2  0
 20 21  1  0
 13  8  1  0
 20 15  1  0
 21 11  1  0
M  END
>  <assay_chembl_id>  (394) 
CHEMBL3095680

>  <assay_description>  (394) 
Displacement of [3H]Mesulergine from human 5-HT2B receptor expressed in HEK293 cells by liquid scintillation counting analysis

>  <parent_molecule_chembl_id>  (394) 
CHEMBL3139103

>  <canonical_smiles>  (394) 
Cl.NC(N)=NC(=O)c1ccc2c(c1)Nc1ccccc1O2

>  <standard_type>  (394) 
Ki

>  <standard_relation>  (394) 
=

>  <standard_value>  (394) 
3.6

>  <standard_units>  (394) 
nM

>  <target_pref_name>  (394) 
Serotonin 2b (5-HT2b) receptor

>  <target_chembl_id>  (394) 
CHEMBL1833

>  <target_organism>  (394) 
Homo sapiens

>  <pchembl_median>  (394) 
5.8

$$$$
CHEMBL3092755
     RDKit          2D

 20 21  0  0  0  0  0  0  0  0999 V2000
    2.5000    0.0000    0.0000 Cl  0  0  0  0  0  0  0  0  0  0  0  0
   -4.5813   -9.9130    0.0000 N   0  0  0  0  0  0  0  0  0  0  0  0
   -3.2110   -9.3029    0.0000 C   0  0  0  0  0  0  0  0  0  0  0  0
   -1.9975  -10.1845    0.0000 N   0  0  0  0  0  0  0  0  0  0  0  0
   -3.0542   -7.8111    0.0000 N   0  0  0  0  0  0  0  0  0  0  0  0
   -1.6839   -7.2010    0.0000 C   0  0  0  0  0  0  0  0  0  0  0  0
   -0.4704   -8.0826    0.0000 O   0  0  0  0  0  0  0  0  0  0  0  0
   -1.5271   -5.7092    0.0000 C   0  0  0  0  0  0  0  0  0  0  0  0
   -2.7406   -4.8275    0.0000 C   0  0  0  0  0  0  0  0  0  0  0  0
   -2.5838   -3.3357    0.0000 C   0  0  0  0  0  0  0  0  0  0  0  0
   -1.2135   -2.7256    0.0000 C   0  0  0  0  0  0  0  0  0  0  0  0
   -0.0000   -3.6073    0.0000 C   0  0  0  0  0  0  0  0  0  0  0  0
   -0.1568   -5.0991    0.0000 C   0  0  0  0  0  0  0  0  0  0  0  0
    1.2135   -2.7256    0.0000 N   0  0  0  0  0  0  0  0  0  0  0  0
    0.7500   -1.2990    0.0000 C   0  0  0  0  0  0  0  0  0  0  0  0
    1.5000    0.0000    0.0000 C   0  0  0  0  0  0  0  0  0  0  0  0
    0.7500    1.2990    0.0000 C   0  0  0  0  0  0  0  0  0  0  0  0
   -0.7500    1.2990    0.0000 C   0  0  0  0  0  0  0  0  0  0  0  0
   -1.5000    0.0000    0.0000 C   0  0  0  0  0  0  0  0  0  0  0  0
   -0.7500   -1.2990    0.0000 C   0  0  0  0  0  0  0  0  0  0  0  0
  2  3  1  0
  3  4  1  0
  3  5  2  3
  5  6  1  0
  6  7  2  0
  6  8  1  0
  8  9  2  0
  9 10  1  0
 10 11  2  0
 11 12  1  0
 12 13  2  0
 12 14  1  0
 14 15  1  0
 15 16  2  0
 16 17  1  0
 17 18  2  0
 18 19  1  0
 19 20  2  0
 13  8  1  0
 20 15  1  0
 20 11  1  0
M  END
>  <assay_chembl_id>  (395) 
CHEMBL3095680

>  <assay_description>  (395) 
Displacement of [3H]Mesulergine from human 5-HT2B receptor expressed in HEK293 cells by liquid scintillation counting analysis

>  <parent_molecule_chembl_id>  (395) 
CHEMBL3139187

>  <canonical_smiles>  (395) 
Cl.NC(N)=NC(=O)c1ccc2c(c1)[nH]c1ccccc12

>  <standard_type>  (395) 
Ki

>  <standard_relation>  (395) 
=

>  <standard_value>  (395) 
10.0

>  <standard_units>  (395) 
nM

>  <target_pref_name>  (395) 
Serotonin 2b (5-HT2b) receptor

>  <target_chembl_id>  (395) 
CHEMBL1833

>  <target_organism>  (395) 
Homo sapiens

>  <pchembl_median>  (395) 
5.34

$$$$
CHEMBL3092754
     RDKit          2D

 20 21  0  0  0  0  0  0  0  0999 V2000
    2.5000    0.0000    0.0000 Cl  0  0  0  0  0  0  0  0  0  0  0  0
   -4.5813   -9.9130    0.0000 N   0  0  0  0  0  0  0  0  0  0  0  0
   -3.2110   -9.3029    0.0000 C   0  0  0  0  0  0  0  0  0  0  0  0
   -1.9975  -10.1845    0.0000 N   0  0  0  0  0  0  0  0  0  0  0  0
   -3.0542   -7.8111    0.0000 N   0  0  0  0  0  0  0  0  0  0  0  0
   -1.6839   -7.2010    0.0000 C   0  0  0  0  0  0  0  0  0  0  0  0
   -0.4704   -8.0826    0.0000 O   0  0  0  0  0  0  0  0  0  0  0  0
   -1.5271   -5.7092    0.0000 C   0  0  0  0  0  0  0  0  0  0  0  0
   -2.7406   -4.8275    0.0000 C   0  0  0  0  0  0  0  0  0  0  0  0
   -2.5838   -3.3357    0.0000 C   0  0  0  0  0  0  0  0  0  0  0  0
   -1.2135   -2.7256    0.0000 C   0  0  0  0  0  0  0  0  0  0  0  0
   -0.0000   -3.6073    0.0000 C   0  0  0  0  0  0  0  0  0  0  0  0
   -0.1568   -5.0991    0.0000 C   0  0  0  0  0  0  0  0  0  0  0  0
    1.2135   -2.7256    0.0000 O   0  0  0  0  0  0  0  0  0  0  0  0
    0.7500   -1.2990    0.0000 C   0  0  0  0  0  0  0  0  0  0  0  0
    1.5000    0.0000    0.0000 C   0  0  0  0  0  0  0  0  0  0  0  0
    0.7500    1.2990    0.0000 C   0  0  0  0  0  0  0  0  0  0  0  0
   -0.7500    1.2990    0.0000 C   0  0  0  0  0  0  0  0  0  0  0  0
   -1.5000    0.0000    0.0000 C   0  0  0  0  0  0  0  0  0  0  0  0
   -0.7500   -1.2990    0.0000 C   0  0  0  0  0  0  0  0  0  0  0  0
  2  3  1  0
  3  4  1  0
  3  5  2  3
  5  6  1  0
  6  7  2  0
  6  8  1  0
  8  9  2  0
  9 10  1  0
 10 11  2  0
 11 12  1  0
 12 13  2  0
 12 14  1  0
 14 15  1  0
 15 16  2  0
 16 17  1  0
 17 18  2  0
 18 19  1  0
 19 20  2  0
 13  8  1  0
 20 15  1  0
 20 11  1  0
M  END
>  <assay_chembl_id>  (396) 
CHEMBL3095680

>  <assay_description>  (396) 
Displacement of [3H]Mesulergine from human 5-HT2B receptor expressed in HEK293 cells by liquid scintillation counting analysis

>  <parent_molecule_chembl_id>  (396) 
CHEMBL3139079

>  <canonical_smiles>  (396) 
Cl.NC(N)=NC(=O)c1ccc2c(c1)oc1ccccc12

>  <standard_type>  (396) 
Ki

>  <standard_relation>  (396) 
=

>  <standard_value>  (396) 
2.1

>  <standard_units>  (396) 
nM

>  <target_pref_name>  (396) 
Serotonin 2b (5-HT2b) receptor

>  <target_chembl_id>  (396) 
CHEMBL1833

>  <target_organism>  (396) 
Homo sapiens

>  <pchembl_median>  (396) 
6.72

$$$$
CHEMBL3092753
     RDKit          2D

 19 21  0  0  0  0  0  0  0  0999 V2000
   -4.5813   -9.9130    0.0000 N   0  0  0  0  0  0  0  0  0  0  0  0
   -3.2110   -9.3029    0.0000 C   0  0  0  0  0  0  0  0  0  0  0  0
   -1.9975  -10.1845    0.0000 N   0  0  0  0  0  0  0  0  0  0  0  0
   -3.0542   -7.8111    0.0000 N   0  0  0  0  0  0  0  0  0  0  0  0
   -1.6839   -7.2010    0.0000 C   0  0  0  0  0  0  0  0  0  0  0  0
   -0.4704   -8.0826    0.0000 O   0  0  0  0  0  0  0  0  0  0  0  0
   -1.5271   -5.7092    0.0000 C   0  0  0  0  0  0  0  0  0  0  0  0
   -2.7406   -4.8275    0.0000 C   0  0  0  0  0  0  0  0  0  0  0  0
   -2.5838   -3.3357    0.0000 C   0  0  0  0  0  0  0  0  0  0  0  0
   -1.2135   -2.7256    0.0000 C   0  0  0  0  0  0  0  0  0  0  0  0
   -0.0000   -3.6073    0.0000 C   0  0  0  0  0  0  0  0  0  0  0  0
   -0.1568   -5.0991    0.0000 C   0  0  0  0  0  0  0  0  0  0  0  0
    1.2135   -2.7256    0.0000 C   0  0  0  0  0  0  0  0  0  0  0  0
    0.7500   -1.2990    0.0000 C   0  0  0  0  0  0  0  0  0  0  0  0
    1.5000    0.0000    0.0000 C   0  0  0  0  0  0  0  0  0  0  0  0
    0.7500    1.2990    0.0000 C   0  0  0  0  0  0  0  0  0  0  0  0
   -0.7500    1.2990    0.0000 C   0  0  0  0  0  0  0  0  0  0  0  0
   -1.5000    0.0000    0.0000 C   0  0  0  0  0  0  0  0  0  0  0  0
   -0.7500   -1.2990    0.0000 C   0  0  0  0  0  0  0  0  0  0  0  0
  1  2  1  0
  2  3  1  0
  2  4  2  3
  4  5  1  0
  5  6  2  0
  5  7  1  0
  7  8  2  0
  8  9  1  0
  9 10  2  0
 10 11  1  0
 11 12  2  0
 11 13  1  0
 13 14  1  0
 14 15  2  0
 15 16  1  0
 16 17  2  0
 17 18  1  0
 18 19  2  0
 12  7  1  0
 19 14  1  0
 19 10  1  0
M  END
>  <assay_chembl_id>  (397) 
CHEMBL3095680

>  <assay_description>  (397) 
Displacement of [3H]Mesulergine from human 5-HT2B receptor expressed in HEK293 cells by liquid scintillation counting analysis

>  <parent_molecule_chembl_id>  (397) 
CHEMBL3092753

>  <canonical_smiles>  (397) 
NC(N)=NC(=O)c1ccc2c(c1)Cc1ccccc1-2

>  <standard_type>  (397) 
Ki

>  <standard_relation>  (397) 
=

>  <standard_value>  (397) 
1.8

>  <standard_units>  (397) 
nM

>  <target_pref_name>  (397) 
Serotonin 2b (5-HT2b) receptor

>  <target_chembl_id>  (397) 
CHEMBL1833

>  <target_organism>  (397) 
Homo sapiens

>  <pchembl_median>  (397) 
5.72

$$$$
CHEMBL294951
     RDKit          2D

 21 24  0  0  0  0  0  0  0  0999 V2000
    7.5348   -1.1367    0.0000 C   0  0  0  0  0  0  0  0  0  0  0  0
    6.0724   -1.4704    0.0000 N   0  0  0  0  0  0  0  0  0  0  0  0
    5.6303   -2.9038    0.0000 C   0  0  0  0  0  0  0  0  0  0  0  0
    4.1679   -3.2376    0.0000 C   0  0  0  0  0  0  0  0  0  0  0  0
    3.1476   -2.1380    0.0000 C   0  0  0  0  0  0  0  0  0  0  0  0
    1.6852   -2.4718    0.0000 C   0  0  0  0  0  0  0  0  0  0  0  0
    0.7500   -1.2990    0.0000 C   0  0  0  0  0  0  0  0  0  0  0  0
    1.5000    0.0000    0.0000 C   0  0  0  0  0  0  0  0  0  0  0  0
    0.7500    1.2990    0.0000 C   0  0  0  0  0  0  0  0  0  0  0  0
   -0.7500    1.2990    0.0000 C   0  0  0  0  0  0  0  0  0  0  0  0
   -1.5000    0.0000    0.0000 C   0  0  0  0  0  0  0  0  0  0  0  0
   -0.7500   -1.2990    0.0000 C   0  0  0  0  0  0  0  0  0  0  0  0
   -1.6852   -2.4718    0.0000 C   0  0  0  0  0  0  0  0  0  0  0  0
   -1.3515   -3.9342    0.0000 C   0  0  0  0  0  0  0  0  0  0  0  0
    0.0000   -4.5850    0.0000 C   0  0  0  0  0  0  0  0  0  0  0  0
    0.2013   -6.0714    0.0000 S   0  0  0  0  0  0  0  0  0  0  0  0
    1.6772   -6.3393    0.0000 C   0  0  0  0  0  0  0  0  0  0  0  0
    2.3880   -5.0184    0.0000 C   0  0  0  0  0  0  0  0  0  0  0  0
    1.3515   -3.9342    0.0000 C   0  0  0  0  0  0  0  0  0  0  0  0
    3.5898   -0.7046    0.0000 C   0  0  0  0  0  0  0  0  0  0  0  0
    5.0522   -0.3709    0.0000 C   0  0  0  0  0  0  0  0  0  0  0  0
  1  2  1  0
  2  3  1  0
  3  4  1  0
  4  5  1  0
  5  6  2  3
  6  7  1  0
  7  8  2  0
  8  9  1  0
  9 10  2  0
 10 11  1  0
 11 12  2  0
 12 13  1  0
 13 14  1  0
 14 15  1  0
 15 16  1  0
 16 17  1  0
 17 18  2  0
 18 19  1  0
  5 20  1  0
 20 21  1  0
 21  2  1  0
 19  6  1  0
 12  7  1  0
 19 15  2  0
M  END
>  <assay_chembl_id>  (398) 
CHEMBL3095680

>  <assay_description>  (398) 
Displacement of [3H]Mesulergine from human 5-HT2B receptor expressed in HEK293 cells by liquid scintillation counting analysis

>  <parent_molecule_chembl_id>  (398) 
CHEMBL294951

>  <canonical_smiles>  (398) 
CN1CCC(=C2c3ccccc3CCc3sccc32)CC1

>  <standard_type>  (398) 
Ki

>  <standard_relation>  (398) 
=

>  <standard_value>  (398) 
2.0

>  <standard_units>  (398) 
nM

>  <target_pref_name>  (398) 
Serotonin 2b (5-HT2b) receptor

>  <target_chembl_id>  (398) 
CHEMBL1833

>  <target_organism>  (398) 
Homo sapiens

>  <pchembl_median>  (398) 
7.03

$$$$
CHEMBL1065
     RDKit          2D

 26 29  0  0  0  0  0  0  0  0999 V2000
    9.7500   -6.4952    0.0000 C   0  0  0  0  0  0  0  0  0  0  0  0
    8.2500   -6.4952    0.0000 C   0  0  0  0  0  0  0  0  0  0  0  0
    7.5000   -5.1962    0.0000 C   0  0  0  0  0  0  0  0  0  0  0  0
    8.2500   -3.8971    0.0000 C   0  0  0  0  0  0  0  0  0  0  0  0
    9.7500   -3.8971    0.0000 O   0  0  0  0  0  0  0  0  0  0  0  0
    6.0000   -5.1962    0.0000 N   0  0  0  0  0  0  0  0  0  0  0  0
    5.2500   -3.8971    0.0000 C   0  0  0  0  0  0  0  0  0  0  0  0
    6.0000   -2.5981    0.0000 O   0  0  0  0  0  0  0  0  0  0  0  0
    3.7500   -3.8971    0.0000 C   0  0  0  0  0  0  0  0  0  0  0  0
    3.0000   -2.5981    0.0000 C   0  0  0  0  0  0  0  0  0  0  0  0
    1.5000   -2.5981    0.0000 C   0  0  0  0  0  0  0  0  0  0  0  0
    0.7500   -1.2990    0.0000 C   0  0  0  0  0  0  0  0  0  0  0  0
    1.5000    0.0000    0.0000 C   0  0  0  0  0  0  0  0  0  0  0  0
    0.7500    1.2990    0.0000 C   0  0  0  0  0  0  0  0  0  0  0  0
   -0.7500    1.2990    0.0000 C   0  0  0  0  0  0  0  0  0  0  0  0
   -1.5000    0.0000    0.0000 C   0  0  0  0  0  0  0  0  0  0  0  0
   -0.7500   -1.2990    0.0000 C   0  0  0  0  0  0  0  0  0  0  0  0
   -1.5000   -2.5981    0.0000 C   0  0  0  0  0  0  0  0  0  0  0  0
   -2.9266   -2.1346    0.0000 C   0  0  0  0  0  0  0  0  0  0  0  0
   -2.9266   -0.6346    0.0000 N   0  0  0  0  0  0  0  0  0  0  0  0
   -4.1401    0.2471    0.0000 C   0  0  0  0  0  0  0  0  0  0  0  0
   -0.7500   -3.8971    0.0000 C   0  0  0  0  0  0  0  0  0  0  0  0
    0.7500   -3.8971    0.0000 C   0  0  0  0  0  0  0  0  0  0  0  0
    1.5000   -5.1962    0.0000 N   0  0  0  0  0  0  0  0  0  0  0  0
    0.7500   -6.4952    0.0000 C   0  0  0  0  0  0  0  0  0  0  0  0
    3.0000   -5.1962    0.0000 C   0  0  0  0  0  0  0  0  0  0  0  0
  1  2  1  0
  3  2  1  6
  3  4  1  0
  4  5  1  0
  3  6  1  0
  6  7  1  0
  7  8  2  0
  9  7  1  1
  9 10  1  0
 10 11  2  0
 11 12  1  0
 12 13  2  0
 13 14  1  0
 14 15  2  0
 15 16  1  0
 16 17  2  0
 17 18  1  0
 18 19  2  0
 19 20  1  0
 20 21  1  0
 18 22  1  0
 23 22  1  6
 23 24  1  0
 24 25  1  0
 24 26  1  0
 26  9  1  0
 23 11  1  0
 17 12  1  0
 20 16  1  0
M  END
>  <assay_chembl_id>  (399) 
CHEMBL3106302

>  <assay_description>  (399) 
Displacement of [3H]LSD from 5-HT2B receptor (unknown origin)

>  <parent_molecule_chembl_id>  (399) 
CHEMBL1065

>  <canonical_smiles>  (399) 
CC[C@@H](CO)NC(=O)[C@@H]1C=C2c3cccc4c3c(cn4C)C[C@H]2N(C)C1

>  <standard_type>  (399) 
Ki

>  <standard_relation>  (399) 
=

>  <standard_value>  (399) 
7.586

>  <standard_units>  (399) 
nM

>  <target_pref_name>  (399) 
Serotonin 2b (5-HT2b) receptor

>  <target_chembl_id>  (399) 
CHEMBL1833

>  <target_organism>  (399) 
Homo sapiens

>  <pchembl_median>  (399) 
7.08

$$$$
CHEMBL3104093
     RDKit          2D

 22 26  0  0  0  0  0  0  0  0999 V2000
   -1.7193  -10.3077    0.0000 C   0  0  0  0  0  0  0  0  0  0  0  0
   -1.2133   -8.8956    0.0000 N   0  0  0  0  0  0  0  0  0  0  0  0
    0.2626   -8.6278    0.0000 C   0  0  0  0  0  0  0  0  0  0  0  0
    0.7685   -7.2157    0.0000 C   0  0  0  0  0  0  0  0  0  0  0  0
   -0.2013   -6.0714    0.0000 C   0  0  0  0  0  0  0  0  0  0  0  0
   -1.6772   -6.3393    0.0000 C   0  0  0  0  0  0  0  0  0  0  0  0
   -2.3880   -5.0184    0.0000 C   0  0  0  0  0  0  0  0  0  0  0  0
   -3.8224   -4.5772    0.0000 C   0  0  0  0  0  0  0  0  0  0  0  0
   -4.1997   -3.1254    0.0000 C   0  0  0  0  0  0  0  0  0  0  0  0
   -3.1312   -2.0727    0.0000 C   0  0  0  0  0  0  0  0  0  0  0  0
   -1.6852   -2.4718    0.0000 C   0  0  0  0  0  0  0  0  0  0  0  0
   -1.3515   -3.9342    0.0000 C   0  0  0  0  0  0  0  0  0  0  0  0
    0.0000   -4.5850    0.0000 N   0  0  0  0  0  0  0  0  0  0  0  0
    1.3515   -3.9342    0.0000 C   0  0  0  0  0  0  0  0  0  0  0  0
    1.6852   -2.4718    0.0000 C   0  0  0  0  0  0  0  0  0  0  0  0
    0.7500   -1.2990    0.0000 C   0  0  0  0  0  0  0  0  0  0  0  0
    1.5000    0.0000    0.0000 C   0  0  0  0  0  0  0  0  0  0  0  0
    0.7500    1.2990    0.0000 C   0  0  0  0  0  0  0  0  0  0  0  0
   -0.7500    1.2990    0.0000 C   0  0  0  0  0  0  0  0  0  0  0  0
   -1.5000    0.0000    0.0000 C   0  0  0  0  0  0  0  0  0  0  0  0
   -0.7500   -1.2990    0.0000 C   0  0  0  0  0  0  0  0  0  0  0  0
   -2.1832   -7.7513    0.0000 C   0  0  0  0  0  0  0  0  0  0  0  0
  1  2  1  0
  2  3  1  0
  3  4  1  0
  4  5  1  0
  5  6  2  0
  6  7  1  0
  7  8  2  0
  8  9  1  0
  9 10  2  0
 10 11  1  0
 11 12  2  0
 12 13  1  0
 13 14  1  0
 14 15  1  0
 15 16  1  0
 16 17  2  0
 17 18  1  0
 18 19  2  0
 19 20  1  0
 20 21  2  0
  6 22  1  0
 22  2  1  0
 13  5  1  0
 21 16  1  0
 12  7  1  0
 21 11  1  0
M  END
>  <assay_chembl_id>  (400) 
CHEMBL3106302

>  <assay_description>  (400) 
Displacement of [3H]LSD from 5-HT2B receptor (unknown origin)

>  <parent_molecule_chembl_id>  (400) 
CHEMBL3104093

>  <canonical_smiles>  (400) 
CN1CCc2c(c3cccc4c3n2CCc2ccccc2-4)C1

>  <standard_type>  (400) 
Ki

>  <standard_relation>  (400) 
=

>  <standard_value>  (400) 
104.0

>  <standard_units>  (400) 
nM

>  <target_pref_name>  (400) 
Serotonin 2b (5-HT2b) receptor

>  <target_chembl_id>  (400) 
CHEMBL1833

>  <target_organism>  (400) 
Homo sapiens

>  <pchembl_median>  (400) 
7.0

$$$$
CHEMBL3104092
     RDKit          2D

 22 26  0  0  0  0  0  0  0  0999 V2000
    4.7536   -8.8464    0.0000 C   0  0  0  0  0  0  0  0  0  0  0  0
    3.9651   -7.5704    0.0000 N   0  0  0  0  0  0  0  0  0  0  0  0
    4.6759   -6.2495    0.0000 C   0  0  0  0  0  0  0  0  0  0  0  0
    3.8874   -4.9735    0.0000 C   0  0  0  0  0  0  0  0  0  0  0  0
    2.3880   -5.0184    0.0000 C   0  0  0  0  0  0  0  0  0  0  0  0
    1.6772   -6.3393    0.0000 C   0  0  0  0  0  0  0  0  0  0  0  0
    0.2013   -6.0714    0.0000 C   0  0  0  0  0  0  0  0  0  0  0  0
   -1.0379   -6.9177    0.0000 C   0  0  0  0  0  0  0  0  0  0  0  0
   -2.4082   -6.3076    0.0000 C   0  0  0  0  0  0  0  0  0  0  0  0
   -2.5650   -4.8159    0.0000 C   0  0  0  0  0  0  0  0  0  0  0  0
   -1.3515   -3.9342    0.0000 C   0  0  0  0  0  0  0  0  0  0  0  0
    0.0000   -4.5850    0.0000 C   0  0  0  0  0  0  0  0  0  0  0  0
    1.3515   -3.9342    0.0000 N   0  0  0  0  0  0  0  0  0  0  0  0
    1.6852   -2.4718    0.0000 C   0  0  0  0  0  0  0  0  0  0  0  0
    0.7500   -1.2990    0.0000 C   0  0  0  0  0  0  0  0  0  0  0  0
    1.5000    0.0000    0.0000 C   0  0  0  0  0  0  0  0  0  0  0  0
    0.7500    1.2990    0.0000 C   0  0  0  0  0  0  0  0  0  0  0  0
   -0.7500    1.2990    0.0000 C   0  0  0  0  0  0  0  0  0  0  0  0
   -1.5000    0.0000    0.0000 C   0  0  0  0  0  0  0  0  0  0  0  0
   -0.7500   -1.2990    0.0000 C   0  0  0  0  0  0  0  0  0  0  0  0
   -1.6852   -2.4718    0.0000 C   0  0  0  0  0  0  0  0  0  0  0  0
    2.4658   -7.6153    0.0000 C   0  0  0  0  0  0  0  0  0  0  0  0
  1  2  1  0
  2  3  1  0
  3  4  1  0
  4  5  1  0
  5  6  2  0
  6  7  1  0
  7  8  2  0
  8  9  1  0
  9 10  2  0
 10 11  1  0
 11 12  2  0
 12 13  1  0
 13 14  1  0
 14 15  1  0
 15 16  2  0
 16 17  1  0
 17 18  2  0
 18 19  1  0
 19 20  2  0
 20 21  1  0
  6 22  1  0
 22  2  1  0
 13  5  1  0
 20 15  1  0
 12  7  1  0
 21 11  1  0
M  END
>  <assay_chembl_id>  (401) 
CHEMBL3106302

>  <assay_description>  (401) 
Displacement of [3H]LSD from 5-HT2B receptor (unknown origin)

>  <parent_molecule_chembl_id>  (401) 
CHEMBL3104092

>  <canonical_smiles>  (401) 
CN1CCc2c(c3cccc4c3n2Cc2ccccc2C4)C1

>  <standard_type>  (401) 
Ki

>  <standard_relation>  (401) 
=

>  <standard_value>  (401) 
57.0

>  <standard_units>  (401) 
nM

>  <target_pref_name>  (401) 
Serotonin 2b (5-HT2b) receptor

>  <target_chembl_id>  (401) 
CHEMBL1833

>  <target_organism>  (401) 
Homo sapiens

>  <pchembl_median>  (401) 
6.94

$$$$
CHEMBL3104091
     RDKit          2D

 22 26  0  0  0  0  0  0  0  0999 V2000
    7.6470   -2.8746    0.0000 C   0  0  0  0  0  0  0  0  0  0  0  0
    6.1577   -2.6955    0.0000 N   0  0  0  0  0  0  0  0  0  0  0  0
    5.5682   -1.3162    0.0000 C   0  0  0  0  0  0  0  0  0  0  0  0
    4.0789   -1.1371    0.0000 C   0  0  0  0  0  0  0  0  0  0  0  0
    3.1792   -2.3373    0.0000 C   0  0  0  0  0  0  0  0  0  0  0  0
    3.7687   -3.7166    0.0000 C   0  0  0  0  0  0  0  0  0  0  0  0
    2.6391   -4.7035    0.0000 C   0  0  0  0  0  0  0  0  0  0  0  0
    2.5282   -6.2001    0.0000 C   0  0  0  0  0  0  0  0  0  0  0  0
    1.1968   -6.8910    0.0000 C   0  0  0  0  0  0  0  0  0  0  0  0
   -0.0673   -6.0835    0.0000 C   0  0  0  0  0  0  0  0  0  0  0  0
    0.0000   -4.5850    0.0000 C   0  0  0  0  0  0  0  0  0  0  0  0
    1.3515   -3.9342    0.0000 C   0  0  0  0  0  0  0  0  0  0  0  0
    1.6852   -2.4718    0.0000 N   0  0  0  0  0  0  0  0  0  0  0  0
    0.7500   -1.2990    0.0000 C   0  0  0  0  0  0  0  0  0  0  0  0
    1.5000    0.0000    0.0000 C   0  0  0  0  0  0  0  0  0  0  0  0
    0.7500    1.2990    0.0000 C   0  0  0  0  0  0  0  0  0  0  0  0
   -0.7500    1.2990    0.0000 C   0  0  0  0  0  0  0  0  0  0  0  0
   -1.5000    0.0000    0.0000 C   0  0  0  0  0  0  0  0  0  0  0  0
   -0.7500   -1.2990    0.0000 C   0  0  0  0  0  0  0  0  0  0  0  0
   -1.6852   -2.4718    0.0000 C   0  0  0  0  0  0  0  0  0  0  0  0
   -1.3515   -3.9342    0.0000 C   0  0  0  0  0  0  0  0  0  0  0  0
    5.2580   -3.8957    0.0000 C   0  0  0  0  0  0  0  0  0  0  0  0
  1  2  1  0
  2  3  1  0
  3  4  1  0
  4  5  1  0
  5  6  2  0
  6  7  1  0
  7  8  2  0
  8  9  1  0
  9 10  2  0
 10 11  1  0
 11 12  2  0
 12 13  1  0
 13 14  1  0
 14 15  2  0
 15 16  1  0
 16 17  2  0
 17 18  1  0
 18 19  2  0
 19 20  1  0
 20 21  1  0
  6 22  1  0
 22  2  1  0
 13  5  1  0
 19 14  1  0
 12  7  1  0
 21 11  1  0
M  END
>  <assay_chembl_id>  (402) 
CHEMBL3106302

>  <assay_description>  (402) 
Displacement of [3H]LSD from 5-HT2B receptor (unknown origin)

>  <parent_molecule_chembl_id>  (402) 
CHEMBL3104091

>  <canonical_smiles>  (402) 
CN1CCc2c(c3cccc4c3n2-c2ccccc2CC4)C1

>  <standard_type>  (402) 
Ki

>  <standard_relation>  (402) 
=

>  <standard_value>  (402) 
87.0

>  <standard_units>  (402) 
nM

>  <target_pref_name>  (402) 
Serotonin 2b (5-HT2b) receptor

>  <target_chembl_id>  (402) 
CHEMBL1833

>  <target_organism>  (402) 
Homo sapiens

>  <pchembl_median>  (402) 
6.5

$$$$
CHEMBL479683
     RDKit          2D

 20 22  0  0  0  0  0  0  0  0999 V2000
   -3.0000   -2.5981    0.0000 O   0  0  0  0  0  0  0  0  0  0  0  0
   -1.5000   -2.5981    0.0000 C   0  0  0  0  0  0  0  0  0  0  0  0
   -0.7500   -3.8971    0.0000 C   0  0  0  0  0  0  0  0  0  0  0  0
    0.7500   -3.8971    0.0000 C   0  0  0  0  0  0  0  0  0  0  0  0
    1.5000   -5.1962    0.0000 C   0  0  0  0  0  0  0  0  0  0  0  0
    0.7500   -6.4952    0.0000 C   0  0  0  0  0  0  0  0  0  0  0  0
    1.5000   -7.7942    0.0000 C   0  0  0  0  0  0  0  0  0  0  0  0
    0.7500   -9.0933    0.0000 C   0  0  0  0  0  0  0  0  0  0  0  0
    1.5000  -10.3923    0.0000 C   0  0  0  0  0  0  0  0  0  0  0  0
    3.0000  -10.3923    0.0000 C   0  0  0  0  0  0  0  0  0  0  0  0
    3.7500   -9.0933    0.0000 C   0  0  0  0  0  0  0  0  0  0  0  0
    3.0000   -7.7942    0.0000 C   0  0  0  0  0  0  0  0  0  0  0  0
    1.5000   -2.5981    0.0000 O   0  0  0  0  0  0  0  0  0  0  0  0
    0.7500   -1.2990    0.0000 C   0  0  0  0  0  0  0  0  0  0  0  0
    1.5000    0.0000    0.0000 C   0  0  0  0  0  0  0  0  0  0  0  0
    0.7500    1.2990    0.0000 C   0  0  0  0  0  0  0  0  0  0  0  0
   -0.7500    1.2990    0.0000 C   0  0  0  0  0  0  0  0  0  0  0  0
   -1.5000    0.0000    0.0000 C   0  0  0  0  0  0  0  0  0  0  0  0
   -3.0000    0.0000    0.0000 O   0  0  0  0  0  0  0  0  0  0  0  0
   -0.7500   -1.2990    0.0000 C   0  0  0  0  0  0  0  0  0  0  0  0
  1  2  2  0
  2  3  1  0
  3  4  2  0
  4  5  1  0
  5  6  1  0
  6  7  1  0
  7  8  2  0
  8  9  1  0
  9 10  2  0
 10 11  1  0
 11 12  2  0
  4 13  1  0
 13 14  1  0
 14 15  2  0
 15 16  1  0
 16 17  2  0
 17 18  1  0
 18 19  1  0
 18 20  2  0
 20  2  1  0
 12  7  1  0
 20 14  1  0
M  END
>  <assay_chembl_id>  (403) 
CHEMBL3129966

>  <assay_description>  (403) 
Displacement of [3H]LSD from 5-HT2B receptor (unknown origin)

>  <parent_molecule_chembl_id>  (403) 
CHEMBL479683

>  <canonical_smiles>  (403) 
O=c1cc(CCc2ccccc2)oc2cccc(O)c12

>  <standard_type>  (403) 
Ki

>  <standard_relation>  (403) 
=

>  <standard_value>  (403) 
2454.71

>  <standard_units>  (403) 
nM

>  <target_pref_name>  (403) 
Serotonin 2b (5-HT2b) receptor

>  <target_chembl_id>  (403) 
CHEMBL1833

>  <target_organism>  (403) 
Homo sapiens

>  <pchembl_median>  (403) 
8.14

$$$$
CHEMBL3260311
     RDKit          2D

 26 29  0  0  0  0  0  0  0  0999 V2000
    3.7500   -6.4952    0.0000 C   0  0  0  0  0  0  0  0  0  0  0  0
    3.0000   -5.1962    0.0000 N   0  0  0  0  0  0  0  0  0  0  0  0
    1.5000   -5.1962    0.0000 C   0  0  0  0  0  0  0  0  0  0  0  0
    0.7500   -3.8971    0.0000 C   0  0  0  0  0  0  0  0  0  0  0  0
    1.5000   -2.5981    0.0000 C   0  0  0  0  0  0  0  0  0  0  0  0
    0.7500   -1.2990    0.0000 C   0  0  0  0  0  0  0  0  0  0  0  0
    1.5000    0.0000    0.0000 C   0  0  0  0  0  0  0  0  0  0  0  0
    0.7500    1.2990    0.0000 C   0  0  0  0  0  0  0  0  0  0  0  0
   -0.7500    1.2990    0.0000 C   0  0  0  0  0  0  0  0  0  0  0  0
   -1.5000    0.0000    0.0000 C   0  0  0  0  0  0  0  0  0  0  0  0
   -3.0000    0.0000    0.0000 C   0  0  0  0  0  0  0  0  0  0  0  0
   -3.7500   -1.2990    0.0000 C   0  0  0  0  0  0  0  0  0  0  0  0
   -5.2500   -1.2990    0.0000 S   0  0  0  0  0  0  0  0  0  0  0  0
   -5.2500    0.2010    0.0000 O   0  0  0  0  0  0  0  0  0  0  0  0
   -5.2500   -2.7990    0.0000 O   0  0  0  0  0  0  0  0  0  0  0  0
   -6.7500   -1.2990    0.0000 C   0  0  0  0  0  0  0  0  0  0  0  0
   -7.5000    0.0000    0.0000 C   0  0  0  0  0  0  0  0  0  0  0  0
   -9.0000    0.0000    0.0000 C   0  0  0  0  0  0  0  0  0  0  0  0
   -9.7500   -1.2990    0.0000 C   0  0  0  0  0  0  0  0  0  0  0  0
   -9.0000   -2.5981    0.0000 C   0  0  0  0  0  0  0  0  0  0  0  0
   -7.5000   -2.5981    0.0000 N   0  0  0  0  0  0  0  0  0  0  0  0
   -3.0000   -2.5981    0.0000 C   0  0  0  0  0  0  0  0  0  0  0  0
   -1.5000   -2.5981    0.0000 N   0  0  0  0  0  0  0  0  0  0  0  0
   -0.7500   -1.2990    0.0000 C   0  0  0  0  0  0  0  0  0  0  0  0
    3.0000   -2.5981    0.0000 C   0  0  0  0  0  0  0  0  0  0  0  0
    3.7500   -3.8971    0.0000 C   0  0  0  0  0  0  0  0  0  0  0  0
  1  2  1  0
  2  3  1  0
  3  4  1  0
  4  5  1  0
  5  6  1  0
  6  7  2  0
  7  8  1  0
  8  9  2  0
  9 10  1  0
 10 11  2  0
 11 12  1  0
 12 13  1  0
 13 14  2  0
 13 15  2  0
 13 16  1  0
 16 17  2  0
 17 18  1  0
 18 19  2  0
 19 20  1  0
 20 21  2  0
 12 22  2  0
 22 23  1  0
 23 24  2  0
  5 25  1  0
 25 26  1  0
 26  2  1  0
 24  6  1  0
 24 10  1  0
 21 16  1  0
M  END
>  <assay_chembl_id>  (404) 
CHEMBL3268954

>  <assay_description>  (404) 
Displacement of [125I]-R-O-DOI from human 5-HT2B receptor expressed in CHO-K1 cells by by liquid scintillation spectrometry

>  <parent_molecule_chembl_id>  (404) 
CHEMBL3260311

>  <canonical_smiles>  (404) 
CN1CCC(c2cccc3cc(S(=O)(=O)c4ccccn4)cnc23)CC1

>  <standard_type>  (404) 
Ki

>  <standard_relation>  (404) 
=

>  <standard_value>  (404) 
144.0

>  <standard_units>  (404) 
nM

>  <target_pref_name>  (404) 
Serotonin 2b (5-HT2b) receptor

>  <target_chembl_id>  (404) 
CHEMBL1833

>  <target_organism>  (404) 
Homo sapiens

>  <pchembl_median>  (404) 
6.82

$$$$
CHEMBL3289656
     RDKit          2D

 24 27  0  0  0  0  0  0  0  0999 V2000
   -9.0933  -11.8573    0.0000 C   0  0  0  0  0  0  0  0  0  0  0  0
   -9.0933  -10.3573    0.0000 C   0  0  0  0  0  0  0  0  0  0  0  0
   -7.7942   -9.6073    0.0000 N   0  0  0  0  0  0  0  0  0  0  0  0
   -6.4952  -10.3573    0.0000 C   0  0  0  0  0  0  0  0  0  0  0  0
   -5.1962   -9.6073    0.0000 N   0  0  0  0  0  0  0  0  0  0  0  0
   -3.8971  -10.3573    0.0000 C   0  0  0  0  0  0  0  0  0  0  0  0
   -2.5981   -9.6073    0.0000 C   0  0  0  0  0  0  0  0  0  0  0  0
   -2.5981   -8.1073    0.0000 N   0  0  0  0  0  0  0  0  0  0  0  0
   -1.2990   -7.3573    0.0000 C   0  0  0  0  0  0  0  0  0  0  0  0
   -1.2990   -5.8573    0.0000 C   0  0  0  0  0  0  0  0  0  0  0  0
   -0.0000   -5.1073    0.0000 C   0  0  0  0  0  0  0  0  0  0  0  0
   -0.0000   -3.6073    0.0000 C   0  0  0  0  0  0  0  0  0  0  0  0
    1.2135   -2.7256    0.0000 N   0  0  0  0  0  0  0  0  0  0  0  0
    0.7500   -1.2990    0.0000 C   0  0  0  0  0  0  0  0  0  0  0  0
    1.5000    0.0000    0.0000 C   0  0  0  0  0  0  0  0  0  0  0  0
    0.7500    1.2990    0.0000 C   0  0  0  0  0  0  0  0  0  0  0  0
   -0.7500    1.2990    0.0000 C   0  0  0  0  0  0  0  0  0  0  0  0
   -1.5000    0.0000    0.0000 C   0  0  0  0  0  0  0  0  0  0  0  0
   -0.7500   -1.2990    0.0000 C   0  0  0  0  0  0  0  0  0  0  0  0
   -1.2135   -2.7256    0.0000 S   0  0  0  0  0  0  0  0  0  0  0  0
   -3.8971   -7.3573    0.0000 C   0  0  0  0  0  0  0  0  0  0  0  0
   -5.1962   -8.1073    0.0000 C   0  0  0  0  0  0  0  0  0  0  0  0
   -6.4952  -11.8573    0.0000 N   0  0  0  0  0  0  0  0  0  0  0  0
   -7.7942  -12.6073    0.0000 C   0  0  0  0  0  0  0  0  0  0  0  0
  1  2  2  0
  2  3  1  0
  3  4  2  0
  4  5  1  0
  5  6  1  0
  6  7  1  0
  7  8  1  0
  8  9  1  0
  9 10  1  0
 10 11  1  0
 11 12  1  0
 12 13  2  0
 13 14  1  0
 14 15  2  0
 15 16  1  0
 16 17  2  0
 17 18  1  0
 18 19  2  0
 19 20  1  0
  8 21  1  0
 21 22  1  0
  4 23  1  0
 23 24  2  0
 24  1  1  0
 22  5  1  0
 20 12  1  0
 19 14  1  0
M  END
>  <assay_chembl_id>  (405) 
CHEMBL3293209

>  <assay_description>  (405) 
Displacement of [3H]LSD from human 5-HT2B receptor by PDSP assay

>  <parent_molecule_chembl_id>  (405) 
CHEMBL3289656

>  <canonical_smiles>  (405) 
c1cnc(N2CCN(CCCc3nc4ccccc4s3)CC2)nc1

>  <standard_type>  (405) 
Ki

>  <standard_relation>  (405) 
=

>  <standard_value>  (405) 
47.0

>  <standard_units>  (405) 
nM

>  <target_pref_name>  (405) 
Serotonin 2b (5-HT2b) receptor

>  <target_chembl_id>  (405) 
CHEMBL1833

>  <target_organism>  (405) 
Homo sapiens

>  <pchembl_median>  (405) 
6.29

$$$$
CHEMBL3310119
     RDKit          2D

 24 25  0  0  0  0  0  0  0  0999 V2000
    4.3786   -5.1199    0.0000 C   0  0  0  0  0  0  0  0  0  0  0  0
    2.9520   -4.6564    0.0000 C   0  0  0  0  0  0  0  0  0  0  0  0
    1.8373   -5.6601    0.0000 O   0  0  0  0  0  0  0  0  0  0  0  0
    2.6401   -3.1891    0.0000 N   0  0  0  0  0  0  0  0  0  0  0  0
    1.2135   -2.7256    0.0000 C   0  0  0  0  0  0  0  0  0  0  0  0
    0.7500   -1.2990    0.0000 C   0  0  0  0  0  0  0  0  0  0  0  0
    1.5000    0.0000    0.0000 C   0  0  0  0  0  0  0  0  0  0  0  0
    0.7500    1.2990    0.0000 C   0  0  0  0  0  0  0  0  0  0  0  0
   -0.7500    1.2990    0.0000 C   0  0  0  0  0  0  0  0  0  0  0  0
   -1.5000    0.0000    0.0000 C   0  0  0  0  0  0  0  0  0  0  0  0
   -0.7500   -1.2990    0.0000 C   0  0  0  0  0  0  0  0  0  0  0  0
   -1.2135   -2.7256    0.0000 C   0  0  0  0  0  0  0  0  0  0  0  0
   -2.5838   -3.3357    0.0000 C   0  0  0  0  0  0  0  0  0  0  0  0
   -2.7406   -4.8275    0.0000 C   0  0  0  0  0  0  0  0  0  0  0  0
   -1.5271   -5.7092    0.0000 C   0  0  0  0  0  0  0  0  0  0  0  0
   -1.6839   -7.2010    0.0000 C   0  0  0  0  0  0  0  0  0  0  0  0
   -0.4704   -8.0826    0.0000 O   0  0  0  0  0  0  0  0  0  0  0  0
   -3.0542   -7.8111    0.0000 N   0  0  0  0  0  0  0  0  0  0  0  0
   -3.2110   -9.3029    0.0000 C   0  0  0  0  0  0  0  0  0  0  0  0
   -4.5813   -9.9130    0.0000 N   0  0  0  0  0  0  0  0  0  0  0  0
   -1.9975  -10.1845    0.0000 N   0  0  0  0  0  0  0  0  0  0  0  0
   -0.1568   -5.0991    0.0000 C   0  0  0  0  0  0  0  0  0  0  0  0
   -0.0000   -3.6073    0.0000 C   0  0  0  0  0  0  0  0  0  0  0  0
    5.3786    0.0000    0.0000 Cl  0  0  0  0  0  0  0  0  0  0  0  0
  1  2  1  0
  2  3  2  0
  2  4  1  0
  4  5  1  0
  5  6  1  0
  6  7  2  0
  7  8  1  0
  8  9  2  0
  9 10  1  0
 10 11  2  0
 11 12  1  0
 12 13  2  0
 13 14  1  0
 14 15  2  0
 15 16  1  0
 16 17  2  0
 16 18  1  0
 18 19  2  3
 19 20  1  0
 19 21  1  0
 15 22  1  0
 22 23  2  0
 23  5  1  0
 11  6  1  0
 23 12  1  0
M  END
>  <assay_chembl_id>  (406) 
CHEMBL3373146

>  <assay_description>  (406) 
Displacement of [3H]Mesulergine from human 5-HT2B receptor expressed in HEK293-EBNA cells by liquid scintillation counting

>  <parent_molecule_chembl_id>  (406) 
CHEMBL3545441

>  <canonical_smiles>  (406) 
CC(=O)NC1c2ccccc2-c2ccc(C(=O)N=C(N)N)cc21.Cl

>  <standard_type>  (406) 
Ki

>  <standard_relation>  (406) 
=

>  <standard_value>  (406) 
34.0

>  <standard_units>  (406) 
nM

>  <target_pref_name>  (406) 
Serotonin 2b (5-HT2b) receptor

>  <target_chembl_id>  (406) 
CHEMBL1833

>  <target_organism>  (406) 
Homo sapiens

>  <pchembl_median>  (406) 
8.47

$$$$
CHEMBL3310120
     RDKit          2D

 21 22  0  0  0  0  0  0  0  0999 V2000
    3.6401    0.0000    0.0000 Cl  0  0  0  0  0  0  0  0  0  0  0  0
   -4.5813   -9.9130    0.0000 N   0  0  0  0  0  0  0  0  0  0  0  0
   -3.2110   -9.3029    0.0000 C   0  0  0  0  0  0  0  0  0  0  0  0
   -1.9975  -10.1845    0.0000 N   0  0  0  0  0  0  0  0  0  0  0  0
   -3.0542   -7.8111    0.0000 N   0  0  0  0  0  0  0  0  0  0  0  0
   -1.6839   -7.2010    0.0000 C   0  0  0  0  0  0  0  0  0  0  0  0
   -0.4704   -8.0826    0.0000 O   0  0  0  0  0  0  0  0  0  0  0  0
   -1.5271   -5.7092    0.0000 C   0  0  0  0  0  0  0  0  0  0  0  0
   -2.7406   -4.8275    0.0000 C   0  0  0  0  0  0  0  0  0  0  0  0
   -2.5838   -3.3357    0.0000 C   0  0  0  0  0  0  0  0  0  0  0  0
   -1.2135   -2.7256    0.0000 C   0  0  0  0  0  0  0  0  0  0  0  0
   -0.0000   -3.6073    0.0000 C   0  0  0  0  0  0  0  0  0  0  0  0
   -0.1568   -5.0991    0.0000 C   0  0  0  0  0  0  0  0  0  0  0  0
    1.2135   -2.7256    0.0000 C   0  0  0  0  0  0  0  0  0  0  0  0
    2.6401   -3.1891    0.0000 N   0  0  0  0  0  0  0  0  0  0  0  0
    0.7500   -1.2990    0.0000 C   0  0  0  0  0  0  0  0  0  0  0  0
    1.5000    0.0000    0.0000 C   0  0  0  0  0  0  0  0  0  0  0  0
    0.7500    1.2990    0.0000 C   0  0  0  0  0  0  0  0  0  0  0  0
   -0.7500    1.2990    0.0000 C   0  0  0  0  0  0  0  0  0  0  0  0
   -1.5000    0.0000    0.0000 C   0  0  0  0  0  0  0  0  0  0  0  0
   -0.7500   -1.2990    0.0000 C   0  0  0  0  0  0  0  0  0  0  0  0
  2  3  1  0
  3  4  1  0
  3  5  2  3
  5  6  1  0
  6  7  2  0
  6  8  1  0
  8  9  2  0
  9 10  1  0
 10 11  2  0
 11 12  1  0
 12 13  2  0
 12 14  1  0
 14 15  1  0
 14 16  1  0
 16 17  2  0
 17 18  1  0
 18 19  2  0
 19 20  1  0
 20 21  2  0
 13  8  1  0
 21 16  1  0
 21 11  1  0
M  END
>  <assay_chembl_id>  (407) 
CHEMBL3373146

>  <assay_description>  (407) 
Displacement of [3H]Mesulergine from human 5-HT2B receptor expressed in HEK293-EBNA cells by liquid scintillation counting

>  <parent_molecule_chembl_id>  (407) 
CHEMBL3545471

>  <canonical_smiles>  (407) 
Cl.NC(N)=NC(=O)c1ccc2c(c1)C(N)c1ccccc1-2

>  <standard_type>  (407) 
Ki

>  <standard_relation>  (407) 
=

>  <standard_value>  (407) 
18.0

>  <standard_units>  (407) 
nM

>  <target_pref_name>  (407) 
Serotonin 2b (5-HT2b) receptor

>  <target_chembl_id>  (407) 
CHEMBL1833

>  <target_organism>  (407) 
Homo sapiens

>  <pchembl_median>  (407) 
7.29

$$$$
CHEMBL3310121
     RDKit          2D

 21 22  0  0  0  0  0  0  0  0999 V2000
    3.6401    0.0000    0.0000 Cl  0  0  0  0  0  0  0  0  0  0  0  0
   -1.9975  -10.1845    0.0000 N   0  0  0  0  0  0  0  0  0  0  0  0
   -3.2110   -9.3029    0.0000 C   0  0  0  0  0  0  0  0  0  0  0  0
   -4.5813   -9.9130    0.0000 N   0  0  0  0  0  0  0  0  0  0  0  0
   -3.0542   -7.8111    0.0000 N   0  0  0  0  0  0  0  0  0  0  0  0
   -1.6839   -7.2010    0.0000 C   0  0  0  0  0  0  0  0  0  0  0  0
   -0.4704   -8.0826    0.0000 O   0  0  0  0  0  0  0  0  0  0  0  0
   -1.5271   -5.7092    0.0000 C   0  0  0  0  0  0  0  0  0  0  0  0
   -2.7406   -4.8275    0.0000 C   0  0  0  0  0  0  0  0  0  0  0  0
   -2.5838   -3.3357    0.0000 C   0  0  0  0  0  0  0  0  0  0  0  0
   -1.2135   -2.7256    0.0000 C   0  0  0  0  0  0  0  0  0  0  0  0
   -0.0000   -3.6073    0.0000 C   0  0  0  0  0  0  0  0  0  0  0  0
   -0.1568   -5.0991    0.0000 C   0  0  0  0  0  0  0  0  0  0  0  0
    1.2135   -2.7256    0.0000 C   0  0  0  0  0  0  0  0  0  0  0  0
    2.6401   -3.1891    0.0000 F   0  0  0  0  0  0  0  0  0  0  0  0
    0.7500   -1.2990    0.0000 C   0  0  0  0  0  0  0  0  0  0  0  0
    1.5000    0.0000    0.0000 C   0  0  0  0  0  0  0  0  0  0  0  0
    0.7500    1.2990    0.0000 C   0  0  0  0  0  0  0  0  0  0  0  0
   -0.7500    1.2990    0.0000 C   0  0  0  0  0  0  0  0  0  0  0  0
   -1.5000    0.0000    0.0000 C   0  0  0  0  0  0  0  0  0  0  0  0
   -0.7500   -1.2990    0.0000 C   0  0  0  0  0  0  0  0  0  0  0  0
  2  3  2  0
  3  4  1  0
  3  5  1  0
  5  6  1  0
  6  7  2  0
  6  8  1  0
  8  9  2  0
  9 10  1  0
 10 11  2  0
 11 12  1  0
 12 13  2  0
 12 14  1  0
 14 15  1  0
 14 16  1  0
 16 17  2  0
 17 18  1  0
 18 19  2  0
 19 20  1  0
 20 21  2  0
 13  8  1  0
 21 16  1  0
 21 11  1  0
M  END
>  <assay_chembl_id>  (408) 
CHEMBL3373146

>  <assay_description>  (408) 
Displacement of [3H]Mesulergine from human 5-HT2B receptor expressed in HEK293-EBNA cells by liquid scintillation counting

>  <parent_molecule_chembl_id>  (408) 
CHEMBL3545472

>  <canonical_smiles>  (408) 
Cl.N=C(N)NC(=O)c1ccc2c(c1)C(F)c1ccccc1-2

>  <standard_type>  (408) 
Ki

>  <standard_relation>  (408) 
=

>  <standard_value>  (408) 
0.9

>  <standard_units>  (408) 
nM

>  <target_pref_name>  (408) 
Serotonin 2b (5-HT2b) receptor

>  <target_chembl_id>  (408) 
CHEMBL1833

>  <target_organism>  (408) 
Homo sapiens

>  <pchembl_median>  (408) 
8.51

$$$$
CHEMBL3310122
     RDKit          2D

 21 22  0  0  0  0  0  0  0  0999 V2000
    2.6401   -3.1891    0.0000 C   0  0  0  0  0  0  0  0  0  0  0  0
    1.2135   -2.7256    0.0000 C   0  0  0  0  0  0  0  0  0  0  0  0
    0.7500   -1.2990    0.0000 C   0  0  0  0  0  0  0  0  0  0  0  0
    1.5000    0.0000    0.0000 C   0  0  0  0  0  0  0  0  0  0  0  0
    0.7500    1.2990    0.0000 C   0  0  0  0  0  0  0  0  0  0  0  0
   -0.7500    1.2990    0.0000 C   0  0  0  0  0  0  0  0  0  0  0  0
   -1.5000    0.0000    0.0000 C   0  0  0  0  0  0  0  0  0  0  0  0
   -0.7500   -1.2990    0.0000 C   0  0  0  0  0  0  0  0  0  0  0  0
   -1.2135   -2.7256    0.0000 C   0  0  0  0  0  0  0  0  0  0  0  0
   -2.5838   -3.3357    0.0000 C   0  0  0  0  0  0  0  0  0  0  0  0
   -2.7406   -4.8275    0.0000 C   0  0  0  0  0  0  0  0  0  0  0  0
   -1.5271   -5.7092    0.0000 C   0  0  0  0  0  0  0  0  0  0  0  0
   -1.6839   -7.2010    0.0000 C   0  0  0  0  0  0  0  0  0  0  0  0
   -0.4704   -8.0826    0.0000 O   0  0  0  0  0  0  0  0  0  0  0  0
   -3.0542   -7.8111    0.0000 N   0  0  0  0  0  0  0  0  0  0  0  0
   -3.2110   -9.3029    0.0000 C   0  0  0  0  0  0  0  0  0  0  0  0
   -4.5813   -9.9130    0.0000 N   0  0  0  0  0  0  0  0  0  0  0  0
   -1.9975  -10.1845    0.0000 N   0  0  0  0  0  0  0  0  0  0  0  0
   -0.1568   -5.0991    0.0000 C   0  0  0  0  0  0  0  0  0  0  0  0
   -0.0000   -3.6073    0.0000 C   0  0  0  0  0  0  0  0  0  0  0  0
    3.6401    0.0000    0.0000 Cl  0  0  0  0  0  0  0  0  0  0  0  0
  1  2  1  0
  2  3  1  0
  3  4  2  0
  4  5  1  0
  5  6  2  0
  6  7  1  0
  7  8  2  0
  8  9  1  0
  9 10  2  0
 10 11  1  0
 11 12  2  0
 12 13  1  0
 13 14  2  0
 13 15  1  0
 15 16  2  3
 16 17  1  0
 16 18  1  0
 12 19  1  0
 19 20  2  0
 20  2  1  0
  8  3  1  0
 20  9  1  0
M  END
>  <assay_chembl_id>  (409) 
CHEMBL3373146

>  <assay_description>  (409) 
Displacement of [3H]Mesulergine from human 5-HT2B receptor expressed in HEK293-EBNA cells by liquid scintillation counting

>  <parent_molecule_chembl_id>  (409) 
CHEMBL3545473

>  <canonical_smiles>  (409) 
CC1c2ccccc2-c2ccc(C(=O)N=C(N)N)cc21.Cl

>  <standard_type>  (409) 
Ki

>  <standard_relation>  (409) 
=

>  <standard_value>  (409) 
4.4

>  <standard_units>  (409) 
nM

>  <target_pref_name>  (409) 
Serotonin 2b (5-HT2b) receptor

>  <target_chembl_id>  (409) 
CHEMBL1833

>  <target_organism>  (409) 
Homo sapiens

>  <pchembl_median>  (409) 
7.89

$$$$
CHEMBL3310713
     RDKit          2D

 23 24  0  0  0  0  0  0  0  0999 V2000
    3.0000    0.0000    0.0000 C   0  0  0  0  0  0  0  0  0  0  0  0
    1.5000    0.0000    0.0000 C   0  0  0  0  0  0  0  0  0  0  0  0
    0.7500   -1.2990    0.0000 C   0  0  0  0  0  0  0  0  0  0  0  0
   -0.7500   -1.2990    0.0000 C   0  0  0  0  0  0  0  0  0  0  0  0
   -1.5000    0.0000    0.0000 C   0  0  0  0  0  0  0  0  0  0  0  0
   -0.7500    1.2990    0.0000 C   0  0  0  0  0  0  0  0  0  0  0  0
    0.7500    1.2990    0.0000 C   0  0  0  0  0  0  0  0  0  0  0  0
    1.2135    2.7256    0.0000 C   0  0  0  0  0  0  0  0  0  0  0  0
    2.5838    3.3357    0.0000 C   0  0  0  0  0  0  0  0  0  0  0  0
    2.7406    4.8275    0.0000 C   0  0  0  0  0  0  0  0  0  0  0  0
    1.5271    5.7092    0.0000 C   0  0  0  0  0  0  0  0  0  0  0  0
    1.6839    7.2010    0.0000 C   0  0  0  0  0  0  0  0  0  0  0  0
    0.4704    8.0826    0.0000 O   0  0  0  0  0  0  0  0  0  0  0  0
    3.0542    7.8111    0.0000 N   0  0  0  0  0  0  0  0  0  0  0  0
    3.2110    9.3029    0.0000 C   0  0  0  0  0  0  0  0  0  0  0  0
    4.5813    9.9130    0.0000 N   0  0  0  0  0  0  0  0  0  0  0  0
    1.9975   10.1845    0.0000 N   0  0  0  0  0  0  0  0  0  0  0  0
    0.1568    5.0991    0.0000 C   0  0  0  0  0  0  0  0  0  0  0  0
    0.0000    3.6073    0.0000 C   0  0  0  0  0  0  0  0  0  0  0  0
   -1.2135    2.7256    0.0000 C   0  0  0  0  0  0  0  0  0  0  0  0
   -1.9635    4.0247    0.0000 C   0  0  0  0  0  0  0  0  0  0  0  0
   -2.5838    2.1155    0.0000 O   0  0  0  0  0  0  0  0  0  0  0  0
    5.5813    0.0000    0.0000 Cl  0  0  0  0  0  0  0  0  0  0  0  0
  1  2  1  0
  2  3  2  0
  3  4  1  0
  4  5  2  0
  5  6  1  0
  6  7  2  0
  7  8  1  0
  8  9  2  0
  9 10  1  0
 10 11  2  0
 11 12  1  0
 12 13  2  0
 12 14  1  0
 14 15  2  3
 15 16  1  0
 15 17  1  0
 11 18  1  0
 18 19  2  0
 19 20  1  0
 20 21  1  0
 20 22  1  0
  7  2  1  0
 19  8  1  0
 20  6  1  0
M  END
>  <assay_chembl_id>  (410) 
CHEMBL3373146

>  <assay_description>  (410) 
Displacement of [3H]Mesulergine from human 5-HT2B receptor expressed in HEK293-EBNA cells by liquid scintillation counting

>  <parent_molecule_chembl_id>  (410) 
CHEMBL3545445

>  <canonical_smiles>  (410) 
Cc1cccc2c1-c1ccc(C(=O)N=C(N)N)cc1C2(C)O.Cl

>  <standard_type>  (410) 
Ki

>  <standard_relation>  (410) 
=

>  <standard_value>  (410) 
1.1

>  <standard_units>  (410) 
nM

>  <target_pref_name>  (410) 
Serotonin 2b (5-HT2b) receptor

>  <target_chembl_id>  (410) 
CHEMBL1833

>  <target_organism>  (410) 
Homo sapiens

>  <pchembl_median>  (410) 
7.35

$$$$
CHEMBL3310714
     RDKit          2D

 24 25  0  0  0  0  0  0  0  0999 V2000
    3.7500   -1.2990    0.0000 C   0  0  0  0  0  0  0  0  0  0  0  0
    3.0000    0.0000    0.0000 C   0  0  0  0  0  0  0  0  0  0  0  0
    1.5000    0.0000    0.0000 C   0  0  0  0  0  0  0  0  0  0  0  0
    0.7500   -1.2990    0.0000 C   0  0  0  0  0  0  0  0  0  0  0  0
   -0.7500   -1.2990    0.0000 C   0  0  0  0  0  0  0  0  0  0  0  0
   -1.5000    0.0000    0.0000 C   0  0  0  0  0  0  0  0  0  0  0  0
   -0.7500    1.2990    0.0000 C   0  0  0  0  0  0  0  0  0  0  0  0
    0.7500    1.2990    0.0000 C   0  0  0  0  0  0  0  0  0  0  0  0
    1.2135    2.7256    0.0000 C   0  0  0  0  0  0  0  0  0  0  0  0
    2.5838    3.3357    0.0000 C   0  0  0  0  0  0  0  0  0  0  0  0
    2.7406    4.8275    0.0000 C   0  0  0  0  0  0  0  0  0  0  0  0
    1.5271    5.7092    0.0000 C   0  0  0  0  0  0  0  0  0  0  0  0
    1.6839    7.2010    0.0000 C   0  0  0  0  0  0  0  0  0  0  0  0
    0.4704    8.0826    0.0000 O   0  0  0  0  0  0  0  0  0  0  0  0
    3.0542    7.8111    0.0000 N   0  0  0  0  0  0  0  0  0  0  0  0
    3.2110    9.3029    0.0000 C   0  0  0  0  0  0  0  0  0  0  0  0
    4.5813    9.9130    0.0000 N   0  0  0  0  0  0  0  0  0  0  0  0
    1.9975   10.1845    0.0000 N   0  0  0  0  0  0  0  0  0  0  0  0
    0.1568    5.0991    0.0000 C   0  0  0  0  0  0  0  0  0  0  0  0
    0.0000    3.6073    0.0000 C   0  0  0  0  0  0  0  0  0  0  0  0
   -1.2135    2.7256    0.0000 C   0  0  0  0  0  0  0  0  0  0  0  0
   -1.9635    4.0247    0.0000 C   0  0  0  0  0  0  0  0  0  0  0  0
   -2.5838    2.1155    0.0000 O   0  0  0  0  0  0  0  0  0  0  0  0
    5.5813    0.0000    0.0000 Cl  0  0  0  0  0  0  0  0  0  0  0  0
  1  2  1  0
  2  3  1  0
  3  4  2  0
  4  5  1  0
  5  6  2  0
  6  7  1  0
  7  8  2  0
  8  9  1  0
  9 10  2  0
 10 11  1  0
 11 12  2  0
 12 13  1  0
 13 14  2  0
 13 15  1  0
 15 16  2  3
 16 17  1  0
 16 18  1  0
 12 19  1  0
 19 20  2  0
 20 21  1  0
 21 22  1  0
 21 23  1  0
  8  3  1  0
 20  9  1  0
 21  7  1  0
M  END
>  <assay_chembl_id>  (411) 
CHEMBL3373146

>  <assay_description>  (411) 
Displacement of [3H]Mesulergine from human 5-HT2B receptor expressed in HEK293-EBNA cells by liquid scintillation counting

>  <parent_molecule_chembl_id>  (411) 
CHEMBL3545444

>  <canonical_smiles>  (411) 
CCc1cccc2c1-c1ccc(C(=O)N=C(N)N)cc1C2(C)O.Cl

>  <standard_type>  (411) 
Ki

>  <standard_relation>  (411) 
=

>  <standard_value>  (411) 
0.71

>  <standard_units>  (411) 
nM

>  <target_pref_name>  (411) 
Serotonin 2b (5-HT2b) receptor

>  <target_chembl_id>  (411) 
CHEMBL1833

>  <target_organism>  (411) 
Homo sapiens

>  <pchembl_median>  (411) 
7.75

$$$$
CHEMBL3310118
     RDKit          2D

 24 25  0  0  0  0  0  0  0  0999 V2000
    5.2500   -1.2990    0.0000 C   0  0  0  0  0  0  0  0  0  0  0  0
    3.7500   -1.2990    0.0000 O   0  0  0  0  0  0  0  0  0  0  0  0
    3.0000    0.0000    0.0000 C   0  0  0  0  0  0  0  0  0  0  0  0
    1.5000    0.0000    0.0000 C   0  0  0  0  0  0  0  0  0  0  0  0
    0.7500   -1.2990    0.0000 C   0  0  0  0  0  0  0  0  0  0  0  0
   -0.7500   -1.2990    0.0000 C   0  0  0  0  0  0  0  0  0  0  0  0
   -1.5000    0.0000    0.0000 C   0  0  0  0  0  0  0  0  0  0  0  0
   -0.7500    1.2990    0.0000 C   0  0  0  0  0  0  0  0  0  0  0  0
    0.7500    1.2990    0.0000 C   0  0  0  0  0  0  0  0  0  0  0  0
    1.2135    2.7256    0.0000 C   0  0  0  0  0  0  0  0  0  0  0  0
    2.5838    3.3357    0.0000 C   0  0  0  0  0  0  0  0  0  0  0  0
    2.7406    4.8275    0.0000 C   0  0  0  0  0  0  0  0  0  0  0  0
    1.5271    5.7092    0.0000 C   0  0  0  0  0  0  0  0  0  0  0  0
    1.6839    7.2010    0.0000 C   0  0  0  0  0  0  0  0  0  0  0  0
    0.4704    8.0826    0.0000 O   0  0  0  0  0  0  0  0  0  0  0  0
    3.0542    7.8111    0.0000 N   0  0  0  0  0  0  0  0  0  0  0  0
    3.2110    9.3029    0.0000 C   0  0  0  0  0  0  0  0  0  0  0  0
    4.5813    9.9130    0.0000 N   0  0  0  0  0  0  0  0  0  0  0  0
    1.9975   10.1845    0.0000 N   0  0  0  0  0  0  0  0  0  0  0  0
    0.1568    5.0991    0.0000 C   0  0  0  0  0  0  0  0  0  0  0  0
    0.0000    3.6073    0.0000 C   0  0  0  0  0  0  0  0  0  0  0  0
   -1.2135    2.7256    0.0000 C   0  0  0  0  0  0  0  0  0  0  0  0
   -2.6401    3.1891    0.0000 O   0  0  0  0  0  0  0  0  0  0  0  0
    6.2500    0.0000    0.0000 Cl  0  0  0  0  0  0  0  0  0  0  0  0
  1  2  1  0
  2  3  1  0
  3  4  1  0
  4  5  2  0
  5  6  1  0
  6  7  2  0
  7  8  1  0
  8  9  2  0
  9 10  1  0
 10 11  2  0
 11 12  1  0
 12 13  2  0
 13 14  1  0
 14 15  2  0
 14 16  1  0
 16 17  2  3
 17 18  1  0
 17 19  1  0
 13 20  1  0
 20 21  2  0
 21 22  1  0
 22 23  1  0
  9  4  1  0
 21 10  1  0
 22  8  1  0
M  END
>  <assay_chembl_id>  (412) 
CHEMBL3373146

>  <assay_description>  (412) 
Displacement of [3H]Mesulergine from human 5-HT2B receptor expressed in HEK293-EBNA cells by liquid scintillation counting

>  <parent_molecule_chembl_id>  (412) 
CHEMBL3545470

>  <canonical_smiles>  (412) 
COCc1cccc2c1-c1ccc(C(=O)N=C(N)N)cc1C2O.Cl

>  <standard_type>  (412) 
Ki

>  <standard_relation>  (412) 
=

>  <standard_value>  (412) 
6.3

>  <standard_units>  (412) 
nM

>  <target_pref_name>  (412) 
Serotonin 2b (5-HT2b) receptor

>  <target_chembl_id>  (412) 
CHEMBL1833

>  <target_organism>  (412) 
Homo sapiens

>  <pchembl_median>  (412) 
7.27

$$$$
CHEMBL3310117
     RDKit          2D

 23 24  0  0  0  0  0  0  0  0999 V2000
    0.0000    4.8810    0.0000 Cl  0  0  0  0  0  0  0  0  0  0  0  0
    6.0000   -2.5981    0.0000 N   0  0  0  0  0  0  0  0  0  0  0  0
    5.2500   -1.2990    0.0000 C   0  0  0  0  0  0  0  0  0  0  0  0
    6.0000    0.0000    0.0000 N   0  0  0  0  0  0  0  0  0  0  0  0
    3.7500   -1.2990    0.0000 N   0  0  0  0  0  0  0  0  0  0  0  0
    3.0000    0.0000    0.0000 C   0  0  0  0  0  0  0  0  0  0  0  0
    3.7500    1.2990    0.0000 O   0  0  0  0  0  0  0  0  0  0  0  0
    1.5000    0.0000    0.0000 C   0  0  0  0  0  0  0  0  0  0  0  0
    0.7500   -1.2990    0.0000 C   0  0  0  0  0  0  0  0  0  0  0  0
   -0.7500   -1.2990    0.0000 C   0  0  0  0  0  0  0  0  0  0  0  0
   -1.5000    0.0000    0.0000 C   0  0  0  0  0  0  0  0  0  0  0  0
   -0.7500    1.2990    0.0000 C   0  0  0  0  0  0  0  0  0  0  0  0
    0.7500    1.2990    0.0000 C   0  0  0  0  0  0  0  0  0  0  0  0
   -1.7537    2.4138    0.0000 C   0  0  0  0  0  0  0  0  0  0  0  0
   -1.4418    3.8810    0.0000 O   0  0  0  0  0  0  0  0  0  0  0  0
   -3.1240    1.8037    0.0000 C   0  0  0  0  0  0  0  0  0  0  0  0
   -4.4943    2.4138    0.0000 C   0  0  0  0  0  0  0  0  0  0  0  0
   -5.7079    1.5321    0.0000 C   0  0  0  0  0  0  0  0  0  0  0  0
   -5.5511    0.0403    0.0000 C   0  0  0  0  0  0  0  0  0  0  0  0
   -4.1807   -0.5698    0.0000 C   0  0  0  0  0  0  0  0  0  0  0  0
   -4.0240   -2.0616    0.0000 C   0  0  0  0  0  0  0  0  0  0  0  0
   -5.2375   -2.9433    0.0000 O   0  0  0  0  0  0  0  0  0  0  0  0
   -2.9672    0.3119    0.0000 C   0  0  0  0  0  0  0  0  0  0  0  0
  2  3  1  0
  3  4  1  0
  3  5  2  3
  5  6  1  0
  6  7  2  0
  6  8  1  0
  8  9  2  0
  9 10  1  0
 10 11  2  0
 11 12  1  0
 12 13  2  0
 12 14  1  0
 14 15  1  0
 14 16  1  0
 16 17  2  0
 17 18  1  0
 18 19  2  0
 19 20  1  0
 20 21  1  0
 21 22  1  0
 20 23  2  0
 13  8  1  0
 23 16  1  0
 23 11  1  0
M  END
>  <assay_chembl_id>  (413) 
CHEMBL3373146

>  <assay_description>  (413) 
Displacement of [3H]Mesulergine from human 5-HT2B receptor expressed in HEK293-EBNA cells by liquid scintillation counting

>  <parent_molecule_chembl_id>  (413) 
CHEMBL3545469

>  <canonical_smiles>  (413) 
Cl.NC(N)=NC(=O)c1ccc2c(c1)C(O)c1cccc(CO)c1-2

>  <standard_type>  (413) 
Ki

>  <standard_relation>  (413) 
=

>  <standard_value>  (413) 
6.6

>  <standard_units>  (413) 
nM

>  <target_pref_name>  (413) 
Serotonin 2b (5-HT2b) receptor

>  <target_chembl_id>  (413) 
CHEMBL1833

>  <target_organism>  (413) 
Homo sapiens

>  <pchembl_median>  (413) 
7.85

$$$$
CHEMBL3310116
     RDKit          2D

 22 23  0  0  0  0  0  0  0  0999 V2000
    3.0000    0.0000    0.0000 C   0  0  0  0  0  0  0  0  0  0  0  0
    1.5000    0.0000    0.0000 C   0  0  0  0  0  0  0  0  0  0  0  0
    0.7500   -1.2990    0.0000 C   0  0  0  0  0  0  0  0  0  0  0  0
   -0.7500   -1.2990    0.0000 C   0  0  0  0  0  0  0  0  0  0  0  0
   -1.5000    0.0000    0.0000 C   0  0  0  0  0  0  0  0  0  0  0  0
   -0.7500    1.2990    0.0000 C   0  0  0  0  0  0  0  0  0  0  0  0
    0.7500    1.2990    0.0000 C   0  0  0  0  0  0  0  0  0  0  0  0
    1.2135    2.7256    0.0000 C   0  0  0  0  0  0  0  0  0  0  0  0
    2.6401    3.1891    0.0000 O   0  0  0  0  0  0  0  0  0  0  0  0
    0.0000    3.6073    0.0000 C   0  0  0  0  0  0  0  0  0  0  0  0
   -0.1568    5.0991    0.0000 C   0  0  0  0  0  0  0  0  0  0  0  0
   -1.5271    5.7092    0.0000 C   0  0  0  0  0  0  0  0  0  0  0  0
   -1.6839    7.2010    0.0000 C   0  0  0  0  0  0  0  0  0  0  0  0
   -3.0542    7.8111    0.0000 O   0  0  0  0  0  0  0  0  0  0  0  0
   -0.4704    8.0826    0.0000 N   0  0  0  0  0  0  0  0  0  0  0  0
   -0.6272    9.5744    0.0000 C   0  0  0  0  0  0  0  0  0  0  0  0
    0.5864   10.4561    0.0000 N   0  0  0  0  0  0  0  0  0  0  0  0
   -1.9975   10.1845    0.0000 N   0  0  0  0  0  0  0  0  0  0  0  0
   -2.7406    4.8275    0.0000 C   0  0  0  0  0  0  0  0  0  0  0  0
   -2.5838    3.3357    0.0000 C   0  0  0  0  0  0  0  0  0  0  0  0
   -1.2135    2.7256    0.0000 C   0  0  0  0  0  0  0  0  0  0  0  0
    4.0000    0.0000    0.0000 Cl  0  0  0  0  0  0  0  0  0  0  0  0
  1  2  1  0
  2  3  2  0
  3  4  1  0
  4  5  2  0
  5  6  1  0
  6  7  2  0
  7  8  1  0
  8  9  1  0
  8 10  1  0
 10 11  2  0
 11 12  1  0
 12 13  1  0
 13 14  2  0
 13 15  1  0
 15 16  2  3
 16 17  1  0
 16 18  1  0
 12 19  2  0
 19 20  1  0
 20 21  2  0
  7  2  1  0
 21 10  1  0
 21  6  1  0
M  END
>  <assay_chembl_id>  (414) 
CHEMBL3373146

>  <assay_description>  (414) 
Displacement of [3H]Mesulergine from human 5-HT2B receptor expressed in HEK293-EBNA cells by liquid scintillation counting

>  <parent_molecule_chembl_id>  (414) 
CHEMBL3545468

>  <canonical_smiles>  (414) 
Cc1cccc2c1C(O)c1cc(C(=O)N=C(N)N)ccc1-2.Cl

>  <standard_type>  (414) 
Ki

>  <standard_relation>  (414) 
=

>  <standard_value>  (414) 
0.67

>  <standard_units>  (414) 
nM

>  <target_pref_name>  (414) 
Serotonin 2b (5-HT2b) receptor

>  <target_chembl_id>  (414) 
CHEMBL1833

>  <target_organism>  (414) 
Homo sapiens

>  <pchembl_median>  (414) 
7.77

$$$$
CHEMBL3310115
     RDKit          2D

 22 23  0  0  0  0  0  0  0  0999 V2000
    0.0000    4.9055    0.0000 Cl  0  0  0  0  0  0  0  0  0  0  0  0
    6.0000   -2.5981    0.0000 N   0  0  0  0  0  0  0  0  0  0  0  0
    5.2500   -1.2990    0.0000 C   0  0  0  0  0  0  0  0  0  0  0  0
    6.0000    0.0000    0.0000 N   0  0  0  0  0  0  0  0  0  0  0  0
    3.7500   -1.2990    0.0000 N   0  0  0  0  0  0  0  0  0  0  0  0
    3.0000    0.0000    0.0000 C   0  0  0  0  0  0  0  0  0  0  0  0
    3.7500    1.2990    0.0000 O   0  0  0  0  0  0  0  0  0  0  0  0
    1.5000    0.0000    0.0000 C   0  0  0  0  0  0  0  0  0  0  0  0
    0.7500   -1.2990    0.0000 C   0  0  0  0  0  0  0  0  0  0  0  0
   -0.7500   -1.2990    0.0000 C   0  0  0  0  0  0  0  0  0  0  0  0
   -1.5000    0.0000    0.0000 C   0  0  0  0  0  0  0  0  0  0  0  0
   -0.7500    1.2990    0.0000 C   0  0  0  0  0  0  0  0  0  0  0  0
    0.7500    1.2990    0.0000 C   0  0  0  0  0  0  0  0  0  0  0  0
   -1.7537    2.4138    0.0000 C   0  0  0  0  0  0  0  0  0  0  0  0
   -1.4418    3.8810    0.0000 O   0  0  0  0  0  0  0  0  0  0  0  0
   -3.1240    1.8037    0.0000 C   0  0  0  0  0  0  0  0  0  0  0  0
   -4.4943    2.4138    0.0000 C   0  0  0  0  0  0  0  0  0  0  0  0
   -4.6511    3.9055    0.0000 Cl  0  0  0  0  0  0  0  0  0  0  0  0
   -5.7079    1.5321    0.0000 C   0  0  0  0  0  0  0  0  0  0  0  0
   -5.5511    0.0403    0.0000 C   0  0  0  0  0  0  0  0  0  0  0  0
   -4.1807   -0.5698    0.0000 C   0  0  0  0  0  0  0  0  0  0  0  0
   -2.9672    0.3119    0.0000 C   0  0  0  0  0  0  0  0  0  0  0  0
  2  3  1  0
  3  4  1  0
  3  5  2  3
  5  6  1  0
  6  7  2  0
  6  8  1  0
  8  9  2  0
  9 10  1  0
 10 11  2  0
 11 12  1  0
 12 13  2  0
 12 14  1  0
 14 15  1  0
 14 16  1  0
 16 17  2  0
 17 18  1  0
 17 19  1  0
 19 20  2  0
 20 21  1  0
 21 22  2  0
 13  8  1  0
 22 16  1  0
 22 11  1  0
M  END
>  <assay_chembl_id>  (415) 
CHEMBL3373146

>  <assay_description>  (415) 
Displacement of [3H]Mesulergine from human 5-HT2B receptor expressed in HEK293-EBNA cells by liquid scintillation counting

>  <parent_molecule_chembl_id>  (415) 
CHEMBL3545467

>  <canonical_smiles>  (415) 
Cl.NC(N)=NC(=O)c1ccc2c(c1)C(O)c1c(Cl)cccc1-2

>  <standard_type>  (415) 
Ki

>  <standard_relation>  (415) 
=

>  <standard_value>  (415) 
0.11

>  <standard_units>  (415) 
nM

>  <target_pref_name>  (415) 
Serotonin 2b (5-HT2b) receptor

>  <target_chembl_id>  (415) 
CHEMBL1833

>  <target_organism>  (415) 
Homo sapiens

>  <pchembl_median>  (415) 
7.75

$$$$
CHEMBL3310114
     RDKit          2D

 22 23  0  0  0  0  0  0  0  0999 V2000
    0.0000    4.8810    0.0000 Cl  0  0  0  0  0  0  0  0  0  0  0  0
    6.0000   -2.5981    0.0000 N   0  0  0  0  0  0  0  0  0  0  0  0
    5.2500   -1.2990    0.0000 C   0  0  0  0  0  0  0  0  0  0  0  0
    6.0000    0.0000    0.0000 N   0  0  0  0  0  0  0  0  0  0  0  0
    3.7500   -1.2990    0.0000 N   0  0  0  0  0  0  0  0  0  0  0  0
    3.0000    0.0000    0.0000 C   0  0  0  0  0  0  0  0  0  0  0  0
    3.7500    1.2990    0.0000 O   0  0  0  0  0  0  0  0  0  0  0  0
    1.5000    0.0000    0.0000 C   0  0  0  0  0  0  0  0  0  0  0  0
    0.7500   -1.2990    0.0000 C   0  0  0  0  0  0  0  0  0  0  0  0
   -0.7500   -1.2990    0.0000 C   0  0  0  0  0  0  0  0  0  0  0  0
   -1.5000    0.0000    0.0000 C   0  0  0  0  0  0  0  0  0  0  0  0
   -0.7500    1.2990    0.0000 C   0  0  0  0  0  0  0  0  0  0  0  0
    0.7500    1.2990    0.0000 C   0  0  0  0  0  0  0  0  0  0  0  0
   -1.7537    2.4138    0.0000 C   0  0  0  0  0  0  0  0  0  0  0  0
   -1.4418    3.8810    0.0000 O   0  0  0  0  0  0  0  0  0  0  0  0
   -3.1240    1.8037    0.0000 C   0  0  0  0  0  0  0  0  0  0  0  0
   -4.4943    2.4138    0.0000 C   0  0  0  0  0  0  0  0  0  0  0  0
   -5.7079    1.5321    0.0000 C   0  0  0  0  0  0  0  0  0  0  0  0
   -5.5511    0.0403    0.0000 C   0  0  0  0  0  0  0  0  0  0  0  0
   -6.7646   -0.8414    0.0000 Cl  0  0  0  0  0  0  0  0  0  0  0  0
   -4.1807   -0.5698    0.0000 C   0  0  0  0  0  0  0  0  0  0  0  0
   -2.9672    0.3119    0.0000 C   0  0  0  0  0  0  0  0  0  0  0  0
  2  3  1  0
  3  4  1  0
  3  5  2  3
  5  6  1  0
  6  7  2  0
  6  8  1  0
  8  9  2  0
  9 10  1  0
 10 11  2  0
 11 12  1  0
 12 13  2  0
 12 14  1  0
 14 15  1  0
 14 16  1  0
 16 17  2  0
 17 18  1  0
 18 19  2  0
 19 20  1  0
 19 21  1  0
 21 22  2  0
 13  8  1  0
 22 16  1  0
 22 11  1  0
M  END
>  <assay_chembl_id>  (416) 
CHEMBL3373146

>  <assay_description>  (416) 
Displacement of [3H]Mesulergine from human 5-HT2B receptor expressed in HEK293-EBNA cells by liquid scintillation counting

>  <parent_molecule_chembl_id>  (416) 
CHEMBL3545466

>  <canonical_smiles>  (416) 
Cl.NC(N)=NC(=O)c1ccc2c(c1)C(O)c1ccc(Cl)cc1-2

>  <standard_type>  (416) 
Ki

>  <standard_relation>  (416) 
=

>  <standard_value>  (416) 
11.0

>  <standard_units>  (416) 
nM

>  <target_pref_name>  (416) 
Serotonin 2b (5-HT2b) receptor

>  <target_chembl_id>  (416) 
CHEMBL1833

>  <target_organism>  (416) 
Homo sapiens

>  <pchembl_median>  (416) 
7.85

$$$$
CHEMBL3310113
     RDKit          2D

 22 24  0  0  0  0  0  0  0  0999 V2000
    3.7500   -1.2990    0.0000 C   0  0  0  0  0  0  0  0  0  0  0  0
    3.0000    0.0000    0.0000 C   0  0  0  0  0  0  0  0  0  0  0  0
    1.5000    0.0000    0.0000 C   0  0  0  0  0  0  0  0  0  0  0  0
    0.7500   -1.2990    0.0000 C   0  0  0  0  0  0  0  0  0  0  0  0
   -0.7500   -1.2990    0.0000 C   0  0  0  0  0  0  0  0  0  0  0  0
   -1.5000    0.0000    0.0000 C   0  0  0  0  0  0  0  0  0  0  0  0
   -0.7500    1.2990    0.0000 C   0  0  0  0  0  0  0  0  0  0  0  0
    0.7500    1.2990    0.0000 C   0  0  0  0  0  0  0  0  0  0  0  0
    1.2135    2.7256    0.0000 C   0  0  0  0  0  0  0  0  0  0  0  0
    2.5838    3.3357    0.0000 C   0  0  0  0  0  0  0  0  0  0  0  0
    2.7406    4.8275    0.0000 C   0  0  0  0  0  0  0  0  0  0  0  0
    1.5271    5.7092    0.0000 C   0  0  0  0  0  0  0  0  0  0  0  0
    1.6839    7.2010    0.0000 C   0  0  0  0  0  0  0  0  0  0  0  0
    0.4704    8.0826    0.0000 O   0  0  0  0  0  0  0  0  0  0  0  0
    3.0542    7.8111    0.0000 N   0  0  0  0  0  0  0  0  0  0  0  0
    3.2110    9.3029    0.0000 C   0  0  0  0  0  0  0  0  0  0  0  0
    4.5813    9.9130    0.0000 N   0  0  0  0  0  0  0  0  0  0  0  0
    1.9975   10.1845    0.0000 N   0  0  0  0  0  0  0  0  0  0  0  0
    0.1568    5.0991    0.0000 C   0  0  0  0  0  0  0  0  0  0  0  0
    0.0000    3.6073    0.0000 C   0  0  0  0  0  0  0  0  0  0  0  0
   -1.2135    2.7256    0.0000 C   0  0  0  0  0  0  0  0  0  0  0  0
   -2.6401    3.1891    0.0000 O   0  0  0  0  0  0  0  0  0  0  0  0
  1  2  1  0
  2  3  1  0
  3  4  2  0
  4  5  1  0
  5  6  2  0
  6  7  1  0
  7  8  2  0
  8  9  1  0
  9 10  2  0
 10 11  1  0
 11 12  2  0
 12 13  1  0
 13 14  2  0
 13 15  1  0
 15 16  2  3
 16 17  1  0
 16 18  1  0
 12 19  1  0
 19 20  2  0
 20 21  1  0
 21 22  1  0
  8  3  1  0
 20  9  1  0
 21  7  1  0
M  END
>  <assay_chembl_id>  (417) 
CHEMBL3373146

>  <assay_description>  (417) 
Displacement of [3H]Mesulergine from human 5-HT2B receptor expressed in HEK293-EBNA cells by liquid scintillation counting

>  <parent_molecule_chembl_id>  (417) 
CHEMBL3310113

>  <canonical_smiles>  (417) 
CCc1cccc2c1-c1ccc(C(=O)N=C(N)N)cc1C2O

>  <standard_type>  (417) 
Ki

>  <standard_relation>  (417) 
=

>  <standard_value>  (417) 
1.6

>  <standard_units>  (417) 
nM

>  <target_pref_name>  (417) 
Serotonin 2b (5-HT2b) receptor

>  <target_chembl_id>  (417) 
CHEMBL1833

>  <target_organism>  (417) 
Homo sapiens

>  <pchembl_median>  (417) 
8.77

$$$$
CHEMBL3310112
     RDKit          2D

 22 23  0  0  0  0  0  0  0  0999 V2000
    0.0000    4.8810    0.0000 Cl  0  0  0  0  0  0  0  0  0  0  0  0
    6.0000   -2.5981    0.0000 N   0  0  0  0  0  0  0  0  0  0  0  0
    5.2500   -1.2990    0.0000 C   0  0  0  0  0  0  0  0  0  0  0  0
    6.0000    0.0000    0.0000 N   0  0  0  0  0  0  0  0  0  0  0  0
    3.7500   -1.2990    0.0000 N   0  0  0  0  0  0  0  0  0  0  0  0
    3.0000    0.0000    0.0000 C   0  0  0  0  0  0  0  0  0  0  0  0
    3.7500    1.2990    0.0000 O   0  0  0  0  0  0  0  0  0  0  0  0
    1.5000    0.0000    0.0000 C   0  0  0  0  0  0  0  0  0  0  0  0
    0.7500   -1.2990    0.0000 C   0  0  0  0  0  0  0  0  0  0  0  0
   -0.7500   -1.2990    0.0000 C   0  0  0  0  0  0  0  0  0  0  0  0
   -1.5000    0.0000    0.0000 C   0  0  0  0  0  0  0  0  0  0  0  0
   -0.7500    1.2990    0.0000 C   0  0  0  0  0  0  0  0  0  0  0  0
    0.7500    1.2990    0.0000 C   0  0  0  0  0  0  0  0  0  0  0  0
   -1.7537    2.4138    0.0000 C   0  0  0  0  0  0  0  0  0  0  0  0
   -1.4418    3.8810    0.0000 O   0  0  0  0  0  0  0  0  0  0  0  0
   -3.1240    1.8037    0.0000 C   0  0  0  0  0  0  0  0  0  0  0  0
   -4.4943    2.4138    0.0000 C   0  0  0  0  0  0  0  0  0  0  0  0
   -5.7079    1.5321    0.0000 C   0  0  0  0  0  0  0  0  0  0  0  0
   -5.5511    0.0403    0.0000 C   0  0  0  0  0  0  0  0  0  0  0  0
   -4.1807   -0.5698    0.0000 C   0  0  0  0  0  0  0  0  0  0  0  0
   -4.0240   -2.0616    0.0000 F   0  0  0  0  0  0  0  0  0  0  0  0
   -2.9672    0.3119    0.0000 C   0  0  0  0  0  0  0  0  0  0  0  0
  2  3  1  0
  3  4  1  0
  3  5  2  3
  5  6  1  0
  6  7  2  0
  6  8  1  0
  8  9  2  0
  9 10  1  0
 10 11  2  0
 11 12  1  0
 12 13  2  0
 12 14  1  0
 14 15  1  0
 14 16  1  0
 16 17  2  0
 17 18  1  0
 18 19  2  0
 19 20  1  0
 20 21  1  0
 20 22  2  0
 13  8  1  0
 22 16  1  0
 22 11  1  0
M  END
>  <assay_chembl_id>  (418) 
CHEMBL3373146

>  <assay_description>  (418) 
Displacement of [3H]Mesulergine from human 5-HT2B receptor expressed in HEK293-EBNA cells by liquid scintillation counting

>  <parent_molecule_chembl_id>  (418) 
CHEMBL3545440

>  <canonical_smiles>  (418) 
Cl.NC(N)=NC(=O)c1ccc2c(c1)C(O)c1cccc(F)c1-2

>  <standard_type>  (418) 
Ki

>  <standard_relation>  (418) 
=

>  <standard_value>  (418) 
0.91

>  <standard_units>  (418) 
nM

>  <target_pref_name>  (418) 
Serotonin 2b (5-HT2b) receptor

>  <target_chembl_id>  (418) 
CHEMBL1833

>  <target_organism>  (418) 
Homo sapiens

>  <pchembl_median>  (418) 
6.14

$$$$
CHEMBL3310111
     RDKit          2D

 22 23  0  0  0  0  0  0  0  0999 V2000
    3.0000    0.0000    0.0000 C   0  0  0  0  0  0  0  0  0  0  0  0
    1.5000    0.0000    0.0000 C   0  0  0  0  0  0  0  0  0  0  0  0
    0.7500   -1.2990    0.0000 C   0  0  0  0  0  0  0  0  0  0  0  0
   -0.7500   -1.2990    0.0000 C   0  0  0  0  0  0  0  0  0  0  0  0
   -1.5000    0.0000    0.0000 C   0  0  0  0  0  0  0  0  0  0  0  0
   -0.7500    1.2990    0.0000 C   0  0  0  0  0  0  0  0  0  0  0  0
    0.7500    1.2990    0.0000 C   0  0  0  0  0  0  0  0  0  0  0  0
    1.2135    2.7256    0.0000 C   0  0  0  0  0  0  0  0  0  0  0  0
    2.5838    3.3357    0.0000 C   0  0  0  0  0  0  0  0  0  0  0  0
    2.7406    4.8275    0.0000 C   0  0  0  0  0  0  0  0  0  0  0  0
    1.5271    5.7092    0.0000 C   0  0  0  0  0  0  0  0  0  0  0  0
    1.6839    7.2010    0.0000 C   0  0  0  0  0  0  0  0  0  0  0  0
    0.4704    8.0826    0.0000 O   0  0  0  0  0  0  0  0  0  0  0  0
    3.0542    7.8111    0.0000 N   0  0  0  0  0  0  0  0  0  0  0  0
    3.2110    9.3029    0.0000 C   0  0  0  0  0  0  0  0  0  0  0  0
    4.5813    9.9130    0.0000 N   0  0  0  0  0  0  0  0  0  0  0  0
    1.9975   10.1845    0.0000 N   0  0  0  0  0  0  0  0  0  0  0  0
    0.1568    5.0991    0.0000 C   0  0  0  0  0  0  0  0  0  0  0  0
    0.0000    3.6073    0.0000 C   0  0  0  0  0  0  0  0  0  0  0  0
   -1.2135    2.7256    0.0000 C   0  0  0  0  0  0  0  0  0  0  0  0
   -2.6401    3.1891    0.0000 O   0  0  0  0  0  0  0  0  0  0  0  0
    5.5813    0.0000    0.0000 Cl  0  0  0  0  0  0  0  0  0  0  0  0
  1  2  1  0
  2  3  2  0
  3  4  1  0
  4  5  2  0
  5  6  1  0
  6  7  2  0
  7  8  1  0
  8  9  2  0
  9 10  1  0
 10 11  2  0
 11 12  1  0
 12 13  2  0
 12 14  1  0
 14 15  2  3
 15 16  1  0
 15 17  1  0
 11 18  1  0
 18 19  2  0
 19 20  1  0
 20 21  1  0
  7  2  1  0
 19  8  1  0
 20  6  1  0
M  END
>  <assay_chembl_id>  (419) 
CHEMBL3373146

>  <assay_description>  (419) 
Displacement of [3H]Mesulergine from human 5-HT2B receptor expressed in HEK293-EBNA cells by liquid scintillation counting

>  <parent_molecule_chembl_id>  (419) 
CHEMBL3545465

>  <canonical_smiles>  (419) 
Cc1cccc2c1-c1ccc(C(=O)N=C(N)N)cc1C2O.Cl

>  <standard_type>  (419) 
Ki

>  <standard_relation>  (419) 
=

>  <standard_value>  (419) 
0.81

>  <standard_units>  (419) 
nM

>  <target_pref_name>  (419) 
Serotonin 2b (5-HT2b) receptor

>  <target_chembl_id>  (419) 
CHEMBL1833

>  <target_organism>  (419) 
Homo sapiens

>  <pchembl_median>  (419) 
6.4

$$$$
CHEMBL3310110
     RDKit          2D

 22 23  0  0  0  0  0  0  0  0999 V2000
    0.0000    4.8810    0.0000 Cl  0  0  0  0  0  0  0  0  0  0  0  0
    6.0000   -2.5981    0.0000 N   0  0  0  0  0  0  0  0  0  0  0  0
    5.2500   -1.2990    0.0000 C   0  0  0  0  0  0  0  0  0  0  0  0
    6.0000    0.0000    0.0000 N   0  0  0  0  0  0  0  0  0  0  0  0
    3.7500   -1.2990    0.0000 N   0  0  0  0  0  0  0  0  0  0  0  0
    3.0000    0.0000    0.0000 C   0  0  0  0  0  0  0  0  0  0  0  0
    3.7500    1.2990    0.0000 O   0  0  0  0  0  0  0  0  0  0  0  0
    1.5000    0.0000    0.0000 C   0  0  0  0  0  0  0  0  0  0  0  0
    0.7500   -1.2990    0.0000 C   0  0  0  0  0  0  0  0  0  0  0  0
   -0.7500   -1.2990    0.0000 C   0  0  0  0  0  0  0  0  0  0  0  0
   -1.5000    0.0000    0.0000 C   0  0  0  0  0  0  0  0  0  0  0  0
   -0.7500    1.2990    0.0000 C   0  0  0  0  0  0  0  0  0  0  0  0
    0.7500    1.2990    0.0000 C   0  0  0  0  0  0  0  0  0  0  0  0
   -1.7537    2.4138    0.0000 C   0  0  0  0  0  0  0  0  0  0  0  0
   -1.4418    3.8810    0.0000 O   0  0  0  0  0  0  0  0  0  0  0  0
   -3.1240    1.8037    0.0000 C   0  0  0  0  0  0  0  0  0  0  0  0
   -4.4943    2.4138    0.0000 C   0  0  0  0  0  0  0  0  0  0  0  0
   -5.7079    1.5321    0.0000 C   0  0  0  0  0  0  0  0  0  0  0  0
   -7.0782    2.1422    0.0000 Cl  0  0  0  0  0  0  0  0  0  0  0  0
   -5.5511    0.0403    0.0000 C   0  0  0  0  0  0  0  0  0  0  0  0
   -4.1807   -0.5698    0.0000 C   0  0  0  0  0  0  0  0  0  0  0  0
   -2.9672    0.3119    0.0000 C   0  0  0  0  0  0  0  0  0  0  0  0
  2  3  1  0
  3  4  1  0
  3  5  2  3
  5  6  1  0
  6  7  2  0
  6  8  1  0
  8  9  2  0
  9 10  1  0
 10 11  2  0
 11 12  1  0
 12 13  2  0
 12 14  1  0
 14 15  1  0
 14 16  1  0
 16 17  2  0
 17 18  1  0
 18 19  1  0
 18 20  2  0
 20 21  1  0
 21 22  2  0
 13  8  1  0
 22 16  1  0
 22 11  1  0
M  END
>  <assay_chembl_id>  (420) 
CHEMBL3373146

>  <assay_description>  (420) 
Displacement of [3H]Mesulergine from human 5-HT2B receptor expressed in HEK293-EBNA cells by liquid scintillation counting

>  <parent_molecule_chembl_id>  (420) 
CHEMBL3545464

>  <canonical_smiles>  (420) 
Cl.NC(N)=NC(=O)c1ccc2c(c1)C(O)c1cc(Cl)ccc1-2

>  <standard_type>  (420) 
Ki

>  <standard_relation>  (420) 
=

>  <standard_value>  (420) 
1.7

>  <standard_units>  (420) 
nM

>  <target_pref_name>  (420) 
Serotonin 2b (5-HT2b) receptor

>  <target_chembl_id>  (420) 
CHEMBL1833

>  <target_organism>  (420) 
Homo sapiens

>  <pchembl_median>  (420) 
6.63

$$$$
CHEMBL3310109
     RDKit          2D

 22 23  0  0  0  0  0  0  0  0999 V2000
    0.0000    4.8810    0.0000 Cl  0  0  0  0  0  0  0  0  0  0  0  0
    6.0000   -2.5981    0.0000 N   0  0  0  0  0  0  0  0  0  0  0  0
    5.2500   -1.2990    0.0000 C   0  0  0  0  0  0  0  0  0  0  0  0
    6.0000    0.0000    0.0000 N   0  0  0  0  0  0  0  0  0  0  0  0
    3.7500   -1.2990    0.0000 N   0  0  0  0  0  0  0  0  0  0  0  0
    3.0000    0.0000    0.0000 C   0  0  0  0  0  0  0  0  0  0  0  0
    3.7500    1.2990    0.0000 O   0  0  0  0  0  0  0  0  0  0  0  0
    1.5000    0.0000    0.0000 C   0  0  0  0  0  0  0  0  0  0  0  0
    0.7500   -1.2990    0.0000 C   0  0  0  0  0  0  0  0  0  0  0  0
   -0.7500   -1.2990    0.0000 C   0  0  0  0  0  0  0  0  0  0  0  0
   -1.5000    0.0000    0.0000 C   0  0  0  0  0  0  0  0  0  0  0  0
   -0.7500    1.2990    0.0000 C   0  0  0  0  0  0  0  0  0  0  0  0
    0.7500    1.2990    0.0000 C   0  0  0  0  0  0  0  0  0  0  0  0
   -1.7537    2.4138    0.0000 C   0  0  0  0  0  0  0  0  0  0  0  0
   -1.4418    3.8810    0.0000 O   0  0  0  0  0  0  0  0  0  0  0  0
   -3.1240    1.8037    0.0000 C   0  0  0  0  0  0  0  0  0  0  0  0
   -4.4943    2.4138    0.0000 C   0  0  0  0  0  0  0  0  0  0  0  0
   -5.7079    1.5321    0.0000 C   0  0  0  0  0  0  0  0  0  0  0  0
   -5.5511    0.0403    0.0000 C   0  0  0  0  0  0  0  0  0  0  0  0
   -4.1807   -0.5698    0.0000 C   0  0  0  0  0  0  0  0  0  0  0  0
   -4.0240   -2.0616    0.0000 Cl  0  0  0  0  0  0  0  0  0  0  0  0
   -2.9672    0.3119    0.0000 C   0  0  0  0  0  0  0  0  0  0  0  0
  2  3  1  0
  3  4  1  0
  3  5  2  3
  5  6  1  0
  6  7  2  0
  6  8  1  0
  8  9  2  0
  9 10  1  0
 10 11  2  0
 11 12  1  0
 12 13  2  0
 12 14  1  0
 14 15  1  0
 14 16  1  0
 16 17  2  0
 17 18  1  0
 18 19  2  0
 19 20  1  0
 20 21  1  0
 20 22  2  0
 13  8  1  0
 22 16  1  0
 22 11  1  0
M  END
>  <assay_chembl_id>  (421) 
CHEMBL3373146

>  <assay_description>  (421) 
Displacement of [3H]Mesulergine from human 5-HT2B receptor expressed in HEK293-EBNA cells by liquid scintillation counting

>  <parent_molecule_chembl_id>  (421) 
CHEMBL3545439

>  <canonical_smiles>  (421) 
Cl.NC(N)=NC(=O)c1ccc2c(c1)C(O)c1cccc(Cl)c1-2

>  <standard_type>  (421) 
Ki

>  <standard_relation>  (421) 
=

>  <standard_value>  (421) 
1.5

>  <standard_units>  (421) 
nM

>  <target_pref_name>  (421) 
Serotonin 2b (5-HT2b) receptor

>  <target_chembl_id>  (421) 
CHEMBL1833

>  <target_organism>  (421) 
Homo sapiens

>  <pchembl_median>  (421) 
6.45

$$$$
CHEMBL1940402
     RDKit          2D

 25 27  0  0  0  0  0  0  0  0999 V2000
    2.6491   -1.6339    0.0000 O   0  0  0  0  0  0  0  0  0  0  0  0
    1.5000   -2.5981    0.0000 C   0  0  0  0  0  0  0  0  0  0  0  0
    0.7500   -1.2990    0.0000 C   0  0  0  0  0  0  0  0  0  0  0  0
    1.5000    0.0000    0.0000 C   0  0  0  0  0  0  0  0  0  0  0  0
    0.7500    1.2990    0.0000 C   0  0  0  0  0  0  0  0  0  0  0  0
   -0.7500    1.2990    0.0000 C   0  0  0  0  0  0  0  0  0  0  0  0
   -1.5000    2.5981    0.0000 Cl  0  0  0  0  0  0  0  0  0  0  0  0
   -1.5000    0.0000    0.0000 C   0  0  0  0  0  0  0  0  0  0  0  0
   -0.7500   -1.2990    0.0000 C   0  0  0  0  0  0  0  0  0  0  0  0
    0.0905   -3.1111    0.0000 C   0  0  0  0  0  0  0  0  0  0  0  0
   -0.1700   -4.5883    0.0000 C   0  0  0  0  0  0  0  0  0  0  0  0
    0.9791   -5.5525    0.0000 N   0  0  0  0  0  0  0  0  0  0  0  0
    0.7186   -7.0297    0.0000 C   0  0  0  0  0  0  0  0  0  0  0  0
   -0.6910   -7.5427    0.0000 C   0  0  0  0  0  0  0  0  0  0  0  0
   -0.9514   -9.0200    0.0000 C   0  0  0  0  0  0  0  0  0  0  0  0
   -2.3610   -9.5330    0.0000 C   0  0  0  0  0  0  0  0  0  0  0  0
   -2.6214  -11.0102    0.0000 C   0  0  0  0  0  0  0  0  0  0  0  0
   -4.0310  -11.5232    0.0000 C   0  0  0  0  0  0  0  0  0  0  0  0
   -4.2915  -13.0004    0.0000 C   0  0  0  0  0  0  0  0  0  0  0  0
   -3.1424  -13.9646    0.0000 C   0  0  0  0  0  0  0  0  0  0  0  0
   -3.4029  -15.4418    0.0000 F   0  0  0  0  0  0  0  0  0  0  0  0
   -1.7328  -13.4516    0.0000 C   0  0  0  0  0  0  0  0  0  0  0  0
   -1.4724  -11.9744    0.0000 C   0  0  0  0  0  0  0  0  0  0  0  0
    2.3886   -5.0395    0.0000 C   0  0  0  0  0  0  0  0  0  0  0  0
    2.6491   -3.5623    0.0000 C   0  0  0  0  0  0  0  0  0  0  0  0
  1  2  1  0
  2  3  1  0
  3  4  2  0
  4  5  1  0
  5  6  2  0
  6  7  1  0
  6  8  1  0
  8  9  2  0
  2 10  1  0
 10 11  1  0
 11 12  1  0
 12 13  1  0
 13 14  1  0
 14 15  1  0
 15 16  1  0
 16 17  1  0
 17 18  2  0
 18 19  1  0
 19 20  2  0
 20 21  1  0
 20 22  1  0
 22 23  2  0
 12 24  1  0
 24 25  1  0
 25  2  1  0
  9  3  1  0
 23 17  1  0
M  END
>  <assay_chembl_id>  (422) 
CHEMBL3366160

>  <assay_description>  (422) 
Displacement of [3H]LSD from human 5-HT2B receptor by liquid scintillation counting

>  <parent_molecule_chembl_id>  (422) 
CHEMBL1940402

>  <canonical_smiles>  (422) 
OC1(c2ccc(Cl)cc2)CCN(CCCCc2ccc(F)cc2)CC1

>  <standard_type>  (422) 
Ki

>  <standard_relation>  (422) 
=

>  <standard_value>  (422) 
723.0

>  <standard_units>  (422) 
nM

>  <target_pref_name>  (422) 
Serotonin 2b (5-HT2b) receptor

>  <target_chembl_id>  (422) 
CHEMBL1833

>  <target_organism>  (422) 
Homo sapiens

>  <pchembl_median>  (422) 
7.44

$$$$
CHEMBL1940404
     RDKit          2D

 25 27  0  0  0  0  0  0  0  0999 V2000
    2.6491   -1.6339    0.0000 O   0  0  0  0  0  0  0  0  0  0  0  0
    1.5000   -2.5981    0.0000 C   0  0  0  0  0  0  0  0  0  0  0  0
    0.7500   -1.2990    0.0000 C   0  0  0  0  0  0  0  0  0  0  0  0
    1.5000    0.0000    0.0000 C   0  0  0  0  0  0  0  0  0  0  0  0
    0.7500    1.2990    0.0000 C   0  0  0  0  0  0  0  0  0  0  0  0
   -0.7500    1.2990    0.0000 C   0  0  0  0  0  0  0  0  0  0  0  0
   -1.5000    2.5981    0.0000 Cl  0  0  0  0  0  0  0  0  0  0  0  0
   -1.5000    0.0000    0.0000 C   0  0  0  0  0  0  0  0  0  0  0  0
   -0.7500   -1.2990    0.0000 C   0  0  0  0  0  0  0  0  0  0  0  0
    0.0905   -3.1111    0.0000 C   0  0  0  0  0  0  0  0  0  0  0  0
   -0.1700   -4.5883    0.0000 C   0  0  0  0  0  0  0  0  0  0  0  0
    0.9791   -5.5525    0.0000 N   0  0  0  0  0  0  0  0  0  0  0  0
    0.7186   -7.0297    0.0000 C   0  0  0  0  0  0  0  0  0  0  0  0
   -0.6910   -7.5427    0.0000 C   0  0  0  0  0  0  0  0  0  0  0  0
   -0.9514   -9.0200    0.0000 C   0  0  0  0  0  0  0  0  0  0  0  0
   -2.3610   -9.5330    0.0000 O   0  0  0  0  0  0  0  0  0  0  0  0
   -2.6214  -11.0102    0.0000 C   0  0  0  0  0  0  0  0  0  0  0  0
   -4.0310  -11.5232    0.0000 C   0  0  0  0  0  0  0  0  0  0  0  0
   -4.2915  -13.0004    0.0000 C   0  0  0  0  0  0  0  0  0  0  0  0
   -3.1424  -13.9646    0.0000 C   0  0  0  0  0  0  0  0  0  0  0  0
   -3.4029  -15.4418    0.0000 F   0  0  0  0  0  0  0  0  0  0  0  0
   -1.7328  -13.4516    0.0000 C   0  0  0  0  0  0  0  0  0  0  0  0
   -1.4724  -11.9744    0.0000 C   0  0  0  0  0  0  0  0  0  0  0  0
    2.3886   -5.0395    0.0000 C   0  0  0  0  0  0  0  0  0  0  0  0
    2.6491   -3.5623    0.0000 C   0  0  0  0  0  0  0  0  0  0  0  0
  1  2  1  0
  2  3  1  0
  3  4  2  0
  4  5  1  0
  5  6  2  0
  6  7  1  0
  6  8  1  0
  8  9  2  0
  2 10  1  0
 10 11  1  0
 11 12  1  0
 12 13  1  0
 13 14  1  0
 14 15  1  0
 15 16  1  0
 16 17  1  0
 17 18  2  0
 18 19  1  0
 19 20  2  0
 20 21  1  0
 20 22  1  0
 22 23  2  0
 12 24  1  0
 24 25  1  0
 25  2  1  0
  9  3  1  0
 23 17  1  0
M  END
>  <assay_chembl_id>  (423) 
CHEMBL3366160

>  <assay_description>  (423) 
Displacement of [3H]LSD from human 5-HT2B receptor by liquid scintillation counting

>  <parent_molecule_chembl_id>  (423) 
CHEMBL1940404

>  <canonical_smiles>  (423) 
OC1(c2ccc(Cl)cc2)CCN(CCCOc2ccc(F)cc2)CC1

>  <standard_type>  (423) 
Ki

>  <standard_relation>  (423) 
=

>  <standard_value>  (423) 
1622.0

>  <standard_units>  (423) 
nM

>  <target_pref_name>  (423) 
Serotonin 2b (5-HT2b) receptor

>  <target_chembl_id>  (423) 
CHEMBL1833

>  <target_organism>  (423) 
Homo sapiens

>  <pchembl_median>  (423) 
6.82

$$$$
CHEMBL1940403
     RDKit          2D

 25 27  0  0  0  0  0  0  0  0999 V2000
    2.6491   -1.6339    0.0000 O   0  0  0  0  0  0  0  0  0  0  0  0
    1.5000   -2.5981    0.0000 C   0  0  0  0  0  0  0  0  0  0  0  0
    0.7500   -1.2990    0.0000 C   0  0  0  0  0  0  0  0  0  0  0  0
    1.5000    0.0000    0.0000 C   0  0  0  0  0  0  0  0  0  0  0  0
    0.7500    1.2990    0.0000 C   0  0  0  0  0  0  0  0  0  0  0  0
   -0.7500    1.2990    0.0000 C   0  0  0  0  0  0  0  0  0  0  0  0
   -1.5000    2.5981    0.0000 Cl  0  0  0  0  0  0  0  0  0  0  0  0
   -1.5000    0.0000    0.0000 C   0  0  0  0  0  0  0  0  0  0  0  0
   -0.7500   -1.2990    0.0000 C   0  0  0  0  0  0  0  0  0  0  0  0
    0.0905   -3.1111    0.0000 C   0  0  0  0  0  0  0  0  0  0  0  0
   -0.1700   -4.5883    0.0000 C   0  0  0  0  0  0  0  0  0  0  0  0
    0.9791   -5.5525    0.0000 N   0  0  0  0  0  0  0  0  0  0  0  0
    0.7186   -7.0297    0.0000 C   0  0  0  0  0  0  0  0  0  0  0  0
   -0.6910   -7.5427    0.0000 C   0  0  0  0  0  0  0  0  0  0  0  0
   -0.9514   -9.0200    0.0000 C   0  0  0  0  0  0  0  0  0  0  0  0
   -2.3610   -9.5330    0.0000 S   0  0  0  0  0  0  0  0  0  0  0  0
   -2.6214  -11.0102    0.0000 C   0  0  0  0  0  0  0  0  0  0  0  0
   -4.0310  -11.5232    0.0000 C   0  0  0  0  0  0  0  0  0  0  0  0
   -4.2915  -13.0004    0.0000 C   0  0  0  0  0  0  0  0  0  0  0  0
   -3.1424  -13.9646    0.0000 C   0  0  0  0  0  0  0  0  0  0  0  0
   -3.4029  -15.4418    0.0000 F   0  0  0  0  0  0  0  0  0  0  0  0
   -1.7328  -13.4516    0.0000 C   0  0  0  0  0  0  0  0  0  0  0  0
   -1.4724  -11.9744    0.0000 C   0  0  0  0  0  0  0  0  0  0  0  0
    2.3886   -5.0395    0.0000 C   0  0  0  0  0  0  0  0  0  0  0  0
    2.6491   -3.5623    0.0000 C   0  0  0  0  0  0  0  0  0  0  0  0
  1  2  1  0
  2  3  1  0
  3  4  2  0
  4  5  1  0
  5  6  2  0
  6  7  1  0
  6  8  1  0
  8  9  2  0
  2 10  1  0
 10 11  1  0
 11 12  1  0
 12 13  1  0
 13 14  1  0
 14 15  1  0
 15 16  1  0
 16 17  1  0
 17 18  2  0
 18 19  1  0
 19 20  2  0
 20 21  1  0
 20 22  1  0
 22 23  2  0
 12 24  1  0
 24 25  1  0
 25  2  1  0
  9  3  1  0
 23 17  1  0
M  END
>  <assay_chembl_id>  (424) 
CHEMBL3366160

>  <assay_description>  (424) 
Displacement of [3H]LSD from human 5-HT2B receptor by liquid scintillation counting

>  <parent_molecule_chembl_id>  (424) 
CHEMBL1940403

>  <canonical_smiles>  (424) 
OC1(c2ccc(Cl)cc2)CCN(CCCSc2ccc(F)cc2)CC1

>  <standard_type>  (424) 
Ki

>  <standard_relation>  (424) 
=

>  <standard_value>  (424) 
790.0

>  <standard_units>  (424) 
nM

>  <target_pref_name>  (424) 
Serotonin 2b (5-HT2b) receptor

>  <target_chembl_id>  (424) 
CHEMBL1833

>  <target_organism>  (424) 
Homo sapiens

>  <pchembl_median>  (424) 
6.695

$$$$
CHEMBL3321788
     RDKit          2D

 27 30  0  0  0  0  0  0  0  0999 V2000
   -3.6161    1.0215    0.0000 O   0  0  0  0  0  0  0  0  0  0  0  0
   -2.1895    1.4851    0.0000 C   0  0  0  0  0  0  0  0  0  0  0  0
   -2.5524    2.9405    0.0000 C   0  0  0  0  0  0  0  0  0  0  0  0
   -1.4734    3.9825    0.0000 C   0  0  0  0  0  0  0  0  0  0  0  0
   -1.8363    5.4380    0.0000 C   0  0  0  0  0  0  0  0  0  0  0  0
   -3.2782    5.8514    0.0000 C   0  0  0  0  0  0  0  0  0  0  0  0
   -3.6411    7.3069    0.0000 Cl  0  0  0  0  0  0  0  0  0  0  0  0
   -4.3572    4.8094    0.0000 C   0  0  0  0  0  0  0  0  0  0  0  0
   -3.9943    3.3540    0.0000 C   0  0  0  0  0  0  0  0  0  0  0  0
   -0.8192    2.0952    0.0000 C   0  0  0  0  0  0  0  0  0  0  0  0
    0.3943    1.2135    0.0000 C   0  0  0  0  0  0  0  0  0  0  0  0
    1.2760    0.0000    0.0000 C   0  0  0  0  0  0  0  0  0  0  0  0
    0.3943   -1.2135    0.0000 C   0  0  0  0  0  0  0  0  0  0  0  0
   -1.0323   -0.7500    0.0000 C   0  0  0  0  0  0  0  0  0  0  0  0
   -2.3463   -0.0067    0.0000 C   0  0  0  0  0  0  0  0  0  0  0  0
   -1.0323    0.7500    0.0000 N   0  0  0  0  0  0  0  0  0  0  0  0
   -2.2458    1.6317    0.0000 C   0  0  0  0  0  0  0  0  0  0  0  0
   -3.6161    1.0216    0.0000 C   0  0  0  0  0  0  0  0  0  0  0  0
   -4.8297    1.9033    0.0000 C   0  0  0  0  0  0  0  0  0  0  0  0
   -6.2000    1.2931    0.0000 C   0  0  0  0  0  0  0  0  0  0  0  0
   -7.4135    2.1748    0.0000 C   0  0  0  0  0  0  0  0  0  0  0  0
   -7.2567    3.6666    0.0000 C   0  0  0  0  0  0  0  0  0  0  0  0
   -8.4702    4.5483    0.0000 C   0  0  0  0  0  0  0  0  0  0  0  0
   -9.8406    3.9382    0.0000 C   0  0  0  0  0  0  0  0  0  0  0  0
  -11.0541    4.8199    0.0000 F   0  0  0  0  0  0  0  0  0  0  0  0
   -9.9973    2.4464    0.0000 C   0  0  0  0  0  0  0  0  0  0  0  0
   -8.7838    1.5647    0.0000 C   0  0  0  0  0  0  0  0  0  0  0  0
  1  2  1  0
  2  3  1  0
  3  4  2  0
  4  5  1  0
  5  6  2  0
  6  7  1  0
  6  8  1  0
  8  9  2  0
  2 10  1  0
 10 11  1  0
 11 12  1  0
 12 13  1  0
 13 14  1  0
 14 15  1  0
 14 16  1  0
 16 17  1  0
 17 18  1  0
 18 19  1  0
 19 20  1  0
 20 21  1  0
 21 22  2  0
 22 23  1  0
 23 24  2  0
 24 25  1  0
 24 26  1  0
 26 27  2  0
 15  2  1  0
 27 21  1  0
  9  3  1  0
 16 11  1  0
M  END
>  <assay_chembl_id>  (425) 
CHEMBL3366160

>  <assay_description>  (425) 
Displacement of [3H]LSD from human 5-HT2B receptor by liquid scintillation counting

>  <parent_molecule_chembl_id>  (425) 
CHEMBL3321788

>  <canonical_smiles>  (425) 
OC1(c2ccc(Cl)cc2)CC2CCC(C1)N2CCCCc1ccc(F)cc1

>  <standard_type>  (425) 
Ki

>  <standard_relation>  (425) 
=

>  <standard_value>  (425) 
1381.0

>  <standard_units>  (425) 
nM

>  <target_pref_name>  (425) 
Serotonin 2b (5-HT2b) receptor

>  <target_chembl_id>  (425) 
CHEMBL1833

>  <target_organism>  (425) 
Homo sapiens

>  <pchembl_median>  (425) 
7.29

$$$$
CHEMBL3321789
     RDKit          2D

 27 30  0  0  0  0  0  0  0  0999 V2000
   -3.6161    1.0215    0.0000 O   0  0  0  0  0  0  0  0  0  0  0  0
   -2.1895    1.4851    0.0000 C   0  0  0  0  0  0  0  0  0  0  0  0
   -2.5524    2.9405    0.0000 C   0  0  0  0  0  0  0  0  0  0  0  0
   -1.4734    3.9825    0.0000 C   0  0  0  0  0  0  0  0  0  0  0  0
   -1.8363    5.4380    0.0000 C   0  0  0  0  0  0  0  0  0  0  0  0
   -3.2782    5.8514    0.0000 C   0  0  0  0  0  0  0  0  0  0  0  0
   -3.6411    7.3069    0.0000 Cl  0  0  0  0  0  0  0  0  0  0  0  0
   -4.3572    4.8094    0.0000 C   0  0  0  0  0  0  0  0  0  0  0  0
   -3.9943    3.3540    0.0000 C   0  0  0  0  0  0  0  0  0  0  0  0
   -0.8192    2.0952    0.0000 C   0  0  0  0  0  0  0  0  0  0  0  0
    0.3943    1.2135    0.0000 C   0  0  0  0  0  0  0  0  0  0  0  0
    1.2760    0.0000    0.0000 C   0  0  0  0  0  0  0  0  0  0  0  0
    0.3943   -1.2135    0.0000 C   0  0  0  0  0  0  0  0  0  0  0  0
   -1.0323   -0.7500    0.0000 C   0  0  0  0  0  0  0  0  0  0  0  0
   -2.3463   -0.0067    0.0000 C   0  0  0  0  0  0  0  0  0  0  0  0
   -1.0323    0.7500    0.0000 N   0  0  0  0  0  0  0  0  0  0  0  0
   -2.2458    1.6317    0.0000 C   0  0  0  0  0  0  0  0  0  0  0  0
   -3.6161    1.0216    0.0000 C   0  0  0  0  0  0  0  0  0  0  0  0
   -4.8297    1.9033    0.0000 C   0  0  0  0  0  0  0  0  0  0  0  0
   -6.2000    1.2931    0.0000 O   0  0  0  0  0  0  0  0  0  0  0  0
   -7.4135    2.1748    0.0000 C   0  0  0  0  0  0  0  0  0  0  0  0
   -7.2567    3.6666    0.0000 C   0  0  0  0  0  0  0  0  0  0  0  0
   -8.4702    4.5483    0.0000 C   0  0  0  0  0  0  0  0  0  0  0  0
   -9.8406    3.9382    0.0000 C   0  0  0  0  0  0  0  0  0  0  0  0
  -11.0541    4.8199    0.0000 F   0  0  0  0  0  0  0  0  0  0  0  0
   -9.9973    2.4464    0.0000 C   0  0  0  0  0  0  0  0  0  0  0  0
   -8.7838    1.5647    0.0000 C   0  0  0  0  0  0  0  0  0  0  0  0
  1  2  1  0
  2  3  1  0
  3  4  2  0
  4  5  1  0
  5  6  2  0
  6  7  1  0
  6  8  1  0
  8  9  2  0
  2 10  1  0
 10 11  1  0
 11 12  1  0
 12 13  1  0
 13 14  1  0
 14 15  1  0
 14 16  1  0
 16 17  1  0
 17 18  1  0
 18 19  1  0
 19 20  1  0
 20 21  1  0
 21 22  2  0
 22 23  1  0
 23 24  2  0
 24 25  1  0
 24 26  1  0
 26 27  2  0
 15  2  1  0
 27 21  1  0
  9  3  1  0
 16 11  1  0
M  END
>  <assay_chembl_id>  (426) 
CHEMBL3366160

>  <assay_description>  (426) 
Displacement of [3H]LSD from human 5-HT2B receptor by liquid scintillation counting

>  <parent_molecule_chembl_id>  (426) 
CHEMBL3321789

>  <canonical_smiles>  (426) 
OC1(c2ccc(Cl)cc2)CC2CCC(C1)N2CCCOc1ccc(F)cc1

>  <standard_type>  (426) 
Ki

>  <standard_relation>  (426) 
=

>  <standard_value>  (426) 
898.0

>  <standard_units>  (426) 
nM

>  <target_pref_name>  (426) 
Serotonin 2b (5-HT2b) receptor

>  <target_chembl_id>  (426) 
CHEMBL1833

>  <target_organism>  (426) 
Homo sapiens

>  <pchembl_median>  (426) 
6.04

$$$$
CHEMBL3321790
     RDKit          2D

 27 30  0  0  0  0  0  0  0  0999 V2000
   -3.6161    1.0215    0.0000 O   0  0  0  0  0  0  0  0  0  0  0  0
   -2.1895    1.4851    0.0000 C   0  0  0  0  0  0  0  0  0  0  0  0
   -2.5524    2.9405    0.0000 C   0  0  0  0  0  0  0  0  0  0  0  0
   -1.4734    3.9825    0.0000 C   0  0  0  0  0  0  0  0  0  0  0  0
   -1.8363    5.4380    0.0000 C   0  0  0  0  0  0  0  0  0  0  0  0
   -3.2782    5.8514    0.0000 C   0  0  0  0  0  0  0  0  0  0  0  0
   -3.6411    7.3069    0.0000 Cl  0  0  0  0  0  0  0  0  0  0  0  0
   -4.3572    4.8094    0.0000 C   0  0  0  0  0  0  0  0  0  0  0  0
   -3.9943    3.3540    0.0000 C   0  0  0  0  0  0  0  0  0  0  0  0
   -0.8192    2.0952    0.0000 C   0  0  0  0  0  0  0  0  0  0  0  0
    0.3943    1.2135    0.0000 C   0  0  0  0  0  0  0  0  0  0  0  0
    1.2760    0.0000    0.0000 C   0  0  0  0  0  0  0  0  0  0  0  0
    0.3943   -1.2135    0.0000 C   0  0  0  0  0  0  0  0  0  0  0  0
   -1.0323   -0.7500    0.0000 C   0  0  0  0  0  0  0  0  0  0  0  0
   -2.3463   -0.0067    0.0000 C   0  0  0  0  0  0  0  0  0  0  0  0
   -1.0323    0.7500    0.0000 N   0  0  0  0  0  0  0  0  0  0  0  0
   -2.2458    1.6317    0.0000 C   0  0  0  0  0  0  0  0  0  0  0  0
   -3.6161    1.0216    0.0000 C   0  0  0  0  0  0  0  0  0  0  0  0
   -4.8297    1.9033    0.0000 C   0  0  0  0  0  0  0  0  0  0  0  0
   -6.2000    1.2931    0.0000 S   0  0  0  0  0  0  0  0  0  0  0  0
   -7.4135    2.1748    0.0000 C   0  0  0  0  0  0  0  0  0  0  0  0
   -7.2567    3.6666    0.0000 C   0  0  0  0  0  0  0  0  0  0  0  0
   -8.4702    4.5483    0.0000 C   0  0  0  0  0  0  0  0  0  0  0  0
   -9.8406    3.9382    0.0000 C   0  0  0  0  0  0  0  0  0  0  0  0
  -11.0541    4.8199    0.0000 F   0  0  0  0  0  0  0  0  0  0  0  0
   -9.9973    2.4464    0.0000 C   0  0  0  0  0  0  0  0  0  0  0  0
   -8.7838    1.5647    0.0000 C   0  0  0  0  0  0  0  0  0  0  0  0
  1  2  1  0
  2  3  1  0
  3  4  2  0
  4  5  1  0
  5  6  2  0
  6  7  1  0
  6  8  1  0
  8  9  2  0
  2 10  1  0
 10 11  1  0
 11 12  1  0
 12 13  1  0
 13 14  1  0
 14 15  1  0
 14 16  1  0
 16 17  1  0
 17 18  1  0
 18 19  1  0
 19 20  1  0
 20 21  1  0
 21 22  2  0
 22 23  1  0
 23 24  2  0
 24 25  1  0
 24 26  1  0
 26 27  2  0
 15  2  1  0
 27 21  1  0
  9  3  1  0
 16 11  1  0
M  END
>  <assay_chembl_id>  (427) 
CHEMBL3366160

>  <assay_description>  (427) 
Displacement of [3H]LSD from human 5-HT2B receptor by liquid scintillation counting

>  <parent_molecule_chembl_id>  (427) 
CHEMBL3321790

>  <canonical_smiles>  (427) 
OC1(c2ccc(Cl)cc2)CC2CCC(C1)N2CCCSc1ccc(F)cc1

>  <standard_type>  (427) 
Ki

>  <standard_relation>  (427) 
=

>  <standard_value>  (427) 
1057.0

>  <standard_units>  (427) 
nM

>  <target_pref_name>  (427) 
Serotonin 2b (5-HT2b) receptor

>  <target_chembl_id>  (427) 
CHEMBL1833

>  <target_organism>  (427) 
Homo sapiens

>  <pchembl_median>  (427) 
6.56

$$$$
CHEMBL3321791
     RDKit          2D

 27 30  0  0  0  0  0  0  0  0999 V2000
   -3.6161    1.0215    0.0000 O   0  0  0  0  0  0  0  0  0  0  0  0
   -2.1895    1.4851    0.0000 C   0  0  0  0  0  0  0  0  0  0  0  0
   -2.5524    2.9405    0.0000 C   0  0  0  0  0  0  0  0  0  0  0  0
   -1.4734    3.9825    0.0000 C   0  0  0  0  0  0  0  0  0  0  0  0
   -1.8363    5.4380    0.0000 C   0  0  0  0  0  0  0  0  0  0  0  0
   -3.2782    5.8514    0.0000 C   0  0  0  0  0  0  0  0  0  0  0  0
   -3.6411    7.3069    0.0000 Cl  0  0  0  0  0  0  0  0  0  0  0  0
   -4.3572    4.8094    0.0000 C   0  0  0  0  0  0  0  0  0  0  0  0
   -3.9943    3.3540    0.0000 C   0  0  0  0  0  0  0  0  0  0  0  0
   -0.8192    2.0952    0.0000 C   0  0  0  0  0  0  0  0  0  0  0  0
    0.3943    1.2135    0.0000 C   0  0  0  0  0  0  0  0  0  0  0  0
    1.2760    0.0000    0.0000 C   0  0  0  0  0  0  0  0  0  0  0  0
    0.3943   -1.2135    0.0000 C   0  0  0  0  0  0  0  0  0  0  0  0
   -1.0323   -0.7500    0.0000 C   0  0  0  0  0  0  0  0  0  0  0  0
   -2.3463   -0.0067    0.0000 C   0  0  0  0  0  0  0  0  0  0  0  0
   -1.0323    0.7500    0.0000 N   0  0  0  0  0  0  0  0  0  0  0  0
   -2.2458    1.6317    0.0000 C   0  0  0  0  0  0  0  0  0  0  0  0
   -3.6161    1.0216    0.0000 C   0  0  0  0  0  0  0  0  0  0  0  0
   -4.8297    1.9033    0.0000 C   0  0  0  0  0  0  0  0  0  0  0  0
   -6.2000    1.2931    0.0000 S   0  0  0  0  0  0  0  0  0  0  0  0
   -7.4135    2.1748    0.0000 C   0  0  0  0  0  0  0  0  0  0  0  0
   -7.2567    3.6666    0.0000 C   0  0  0  0  0  0  0  0  0  0  0  0
   -8.4702    4.5483    0.0000 C   0  0  0  0  0  0  0  0  0  0  0  0
   -9.8406    3.9382    0.0000 C   0  0  0  0  0  0  0  0  0  0  0  0
   -9.9973    2.4464    0.0000 C   0  0  0  0  0  0  0  0  0  0  0  0
  -11.3677    1.8363    0.0000 F   0  0  0  0  0  0  0  0  0  0  0  0
   -8.7838    1.5647    0.0000 C   0  0  0  0  0  0  0  0  0  0  0  0
  1  2  1  0
  2  3  1  0
  3  4  2  0
  4  5  1  0
  5  6  2  0
  6  7  1  0
  6  8  1  0
  8  9  2  0
  2 10  1  0
 10 11  1  0
 11 12  1  0
 12 13  1  0
 13 14  1  0
 14 15  1  0
 14 16  1  0
 16 17  1  0
 17 18  1  0
 18 19  1  0
 19 20  1  0
 20 21  1  0
 21 22  2  0
 22 23  1  0
 23 24  2  0
 24 25  1  0
 25 26  1  0
 25 27  2  0
 15  2  1  0
 27 21  1  0
  9  3  1  0
 16 11  1  0
M  END
>  <assay_chembl_id>  (428) 
CHEMBL3366160

>  <assay_description>  (428) 
Displacement of [3H]LSD from human 5-HT2B receptor by liquid scintillation counting

>  <parent_molecule_chembl_id>  (428) 
CHEMBL3321791

>  <canonical_smiles>  (428) 
OC1(c2ccc(Cl)cc2)CC2CCC(C1)N2CCCSc1cccc(F)c1

>  <standard_type>  (428) 
Ki

>  <standard_relation>  (428) 
=

>  <standard_value>  (428) 
270.0

>  <standard_units>  (428) 
nM

>  <target_pref_name>  (428) 
Serotonin 2b (5-HT2b) receptor

>  <target_chembl_id>  (428) 
CHEMBL1833

>  <target_organism>  (428) 
Homo sapiens

>  <pchembl_median>  (428) 
6.21

$$$$
CHEMBL3321792
     RDKit          2D

 27 30  0  0  0  0  0  0  0  0999 V2000
   -3.6161    1.0215    0.0000 O   0  0  0  0  0  0  0  0  0  0  0  0
   -2.1895    1.4851    0.0000 C   0  0  0  0  0  0  0  0  0  0  0  0
   -2.5524    2.9405    0.0000 C   0  0  0  0  0  0  0  0  0  0  0  0
   -1.4734    3.9825    0.0000 C   0  0  0  0  0  0  0  0  0  0  0  0
   -1.8363    5.4380    0.0000 C   0  0  0  0  0  0  0  0  0  0  0  0
   -3.2782    5.8514    0.0000 C   0  0  0  0  0  0  0  0  0  0  0  0
   -3.6411    7.3069    0.0000 Cl  0  0  0  0  0  0  0  0  0  0  0  0
   -4.3572    4.8094    0.0000 C   0  0  0  0  0  0  0  0  0  0  0  0
   -3.9943    3.3540    0.0000 C   0  0  0  0  0  0  0  0  0  0  0  0
   -0.8192    2.0952    0.0000 C   0  0  0  0  0  0  0  0  0  0  0  0
    0.3943    1.2135    0.0000 C   0  0  0  0  0  0  0  0  0  0  0  0
    1.2760    0.0000    0.0000 C   0  0  0  0  0  0  0  0  0  0  0  0
    0.3943   -1.2135    0.0000 C   0  0  0  0  0  0  0  0  0  0  0  0
   -1.0323   -0.7500    0.0000 C   0  0  0  0  0  0  0  0  0  0  0  0
   -2.3463   -0.0067    0.0000 C   0  0  0  0  0  0  0  0  0  0  0  0
   -1.0323    0.7500    0.0000 N   0  0  0  0  0  0  0  0  0  0  0  0
   -2.2458    1.6317    0.0000 C   0  0  0  0  0  0  0  0  0  0  0  0
   -3.6161    1.0216    0.0000 C   0  0  0  0  0  0  0  0  0  0  0  0
   -4.8297    1.9033    0.0000 C   0  0  0  0  0  0  0  0  0  0  0  0
   -6.2000    1.2931    0.0000 S   0  0  0  0  0  0  0  0  0  0  0  0
   -7.4135    2.1748    0.0000 C   0  0  0  0  0  0  0  0  0  0  0  0
   -7.2567    3.6666    0.0000 C   0  0  0  0  0  0  0  0  0  0  0  0
   -8.4702    4.5483    0.0000 C   0  0  0  0  0  0  0  0  0  0  0  0
   -9.8406    3.9382    0.0000 C   0  0  0  0  0  0  0  0  0  0  0  0
   -9.9973    2.4464    0.0000 C   0  0  0  0  0  0  0  0  0  0  0  0
   -8.7838    1.5647    0.0000 C   0  0  0  0  0  0  0  0  0  0  0  0
   -8.9406    0.0729    0.0000 F   0  0  0  0  0  0  0  0  0  0  0  0
  1  2  1  0
  2  3  1  0
  3  4  2  0
  4  5  1  0
  5  6  2  0
  6  7  1  0
  6  8  1  0
  8  9  2  0
  2 10  1  0
 10 11  1  0
 11 12  1  0
 12 13  1  0
 13 14  1  0
 14 15  1  0
 14 16  1  0
 16 17  1  0
 17 18  1  0
 18 19  1  0
 19 20  1  0
 20 21  1  0
 21 22  2  0
 22 23  1  0
 23 24  2  0
 24 25  1  0
 25 26  2  0
 26 27  1  0
 15  2  1  0
 26 21  1  0
  9  3  1  0
 16 11  1  0
M  END
>  <assay_chembl_id>  (429) 
CHEMBL3366160

>  <assay_description>  (429) 
Displacement of [3H]LSD from human 5-HT2B receptor by liquid scintillation counting

>  <parent_molecule_chembl_id>  (429) 
CHEMBL3321792

>  <canonical_smiles>  (429) 
OC1(c2ccc(Cl)cc2)CC2CCC(C1)N2CCCSc1ccccc1F

>  <standard_type>  (429) 
Ki

>  <standard_relation>  (429) 
=

>  <standard_value>  (429) 
520.0

>  <standard_units>  (429) 
nM

>  <target_pref_name>  (429) 
Serotonin 2b (5-HT2b) receptor

>  <target_chembl_id>  (429) 
CHEMBL1833

>  <target_organism>  (429) 
Homo sapiens

>  <pchembl_median>  (429) 
6.29

$$$$
CHEMBL3310123
     RDKit          2D

 22 23  0  0  0  0  0  0  0  0999 V2000
    2.5838   -2.1155    0.0000 C   0  0  0  0  0  0  0  0  0  0  0  0
    1.2135   -2.7256    0.0000 C   0  0  0  0  0  0  0  0  0  0  0  0
    1.9635   -4.0247    0.0000 O   0  0  0  0  0  0  0  0  0  0  0  0
    0.7500   -1.2990    0.0000 C   0  0  0  0  0  0  0  0  0  0  0  0
    1.5000    0.0000    0.0000 C   0  0  0  0  0  0  0  0  0  0  0  0
    0.7500    1.2990    0.0000 C   0  0  0  0  0  0  0  0  0  0  0  0
   -0.7500    1.2990    0.0000 C   0  0  0  0  0  0  0  0  0  0  0  0
   -1.5000    0.0000    0.0000 C   0  0  0  0  0  0  0  0  0  0  0  0
   -0.7500   -1.2990    0.0000 C   0  0  0  0  0  0  0  0  0  0  0  0
   -1.2135   -2.7256    0.0000 C   0  0  0  0  0  0  0  0  0  0  0  0
   -2.5838   -3.3357    0.0000 C   0  0  0  0  0  0  0  0  0  0  0  0
   -2.7406   -4.8275    0.0000 C   0  0  0  0  0  0  0  0  0  0  0  0
   -1.5271   -5.7092    0.0000 C   0  0  0  0  0  0  0  0  0  0  0  0
   -1.6839   -7.2010    0.0000 C   0  0  0  0  0  0  0  0  0  0  0  0
   -0.4704   -8.0826    0.0000 O   0  0  0  0  0  0  0  0  0  0  0  0
   -3.0542   -7.8111    0.0000 N   0  0  0  0  0  0  0  0  0  0  0  0
   -3.2110   -9.3029    0.0000 C   0  0  0  0  0  0  0  0  0  0  0  0
   -4.5813   -9.9130    0.0000 N   0  0  0  0  0  0  0  0  0  0  0  0
   -1.9975  -10.1845    0.0000 N   0  0  0  0  0  0  0  0  0  0  0  0
   -0.1568   -5.0991    0.0000 C   0  0  0  0  0  0  0  0  0  0  0  0
   -0.0000   -3.6073    0.0000 C   0  0  0  0  0  0  0  0  0  0  0  0
    3.5838    0.0000    0.0000 Cl  0  0  0  0  0  0  0  0  0  0  0  0
  1  2  1  0
  2  3  1  0
  2  4  1  0
  4  5  2  0
  5  6  1  0
  6  7  2  0
  7  8  1  0
  8  9  2  0
  9 10  1  0
 10 11  2  0
 11 12  1  0
 12 13  2  0
 13 14  1  0
 14 15  2  0
 14 16  1  0
 16 17  2  3
 17 18  1  0
 17 19  1  0
 13 20  1  0
 20 21  2  0
 21  2  1  0
  9  4  1  0
 21 10  1  0
M  END
>  <assay_chembl_id>  (430) 
CHEMBL3381335

>  <assay_description>  (430) 
Displacement of [3H]mesulergine from human 5-HT2B receptor expressed in HEK293 cells

>  <parent_molecule_chembl_id>  (430) 
CHEMBL3545474

>  <canonical_smiles>  (430) 
CC1(O)c2ccccc2-c2ccc(C(=O)N=C(N)N)cc21.Cl

>  <standard_type>  (430) 
Ki

>  <standard_relation>  (430) 
=

>  <standard_value>  (430) 
4.3

>  <standard_units>  (430) 
nM

>  <target_pref_name>  (430) 
Serotonin 2b (5-HT2b) receptor

>  <target_chembl_id>  (430) 
CHEMBL1833

>  <target_organism>  (430) 
Homo sapiens

>  <pchembl_median>  (430) 
6.23

$$$$
CHEMBL3343663
     RDKit          2D

 23 24  0  0  0  0  0  0  0  0999 V2000
    3.7974   -2.9972    0.0000 C   0  0  0  0  0  0  0  0  0  0  0  0
    2.5838   -2.1155    0.0000 C   0  0  0  0  0  0  0  0  0  0  0  0
    1.2135   -2.7256    0.0000 C   0  0  0  0  0  0  0  0  0  0  0  0
    1.9635   -4.0247    0.0000 O   0  0  0  0  0  0  0  0  0  0  0  0
    0.7500   -1.2990    0.0000 C   0  0  0  0  0  0  0  0  0  0  0  0
    1.5000    0.0000    0.0000 C   0  0  0  0  0  0  0  0  0  0  0  0
    0.7500    1.2990    0.0000 C   0  0  0  0  0  0  0  0  0  0  0  0
   -0.7500    1.2990    0.0000 C   0  0  0  0  0  0  0  0  0  0  0  0
   -1.5000    0.0000    0.0000 C   0  0  0  0  0  0  0  0  0  0  0  0
   -0.7500   -1.2990    0.0000 C   0  0  0  0  0  0  0  0  0  0  0  0
   -1.2135   -2.7256    0.0000 C   0  0  0  0  0  0  0  0  0  0  0  0
   -2.5838   -3.3357    0.0000 C   0  0  0  0  0  0  0  0  0  0  0  0
   -2.7406   -4.8275    0.0000 C   0  0  0  0  0  0  0  0  0  0  0  0
   -1.5271   -5.7092    0.0000 C   0  0  0  0  0  0  0  0  0  0  0  0
   -1.6839   -7.2010    0.0000 C   0  0  0  0  0  0  0  0  0  0  0  0
   -0.4704   -8.0826    0.0000 O   0  0  0  0  0  0  0  0  0  0  0  0
   -3.0542   -7.8111    0.0000 N   0  0  0  0  0  0  0  0  0  0  0  0
   -3.2110   -9.3029    0.0000 C   0  0  0  0  0  0  0  0  0  0  0  0
   -4.5813   -9.9130    0.0000 N   0  0  0  0  0  0  0  0  0  0  0  0
   -1.9975  -10.1845    0.0000 N   0  0  0  0  0  0  0  0  0  0  0  0
   -0.1568   -5.0991    0.0000 C   0  0  0  0  0  0  0  0  0  0  0  0
   -0.0000   -3.6073    0.0000 C   0  0  0  0  0  0  0  0  0  0  0  0
    4.7974    0.0000    0.0000 Cl  0  0  0  0  0  0  0  0  0  0  0  0
  1  2  1  0
  2  3  1  0
  3  4  1  0
  3  5  1  0
  5  6  2  0
  6  7  1  0
  7  8  2  0
  8  9  1  0
  9 10  2  0
 10 11  1  0
 11 12  2  0
 12 13  1  0
 13 14  2  0
 14 15  1  0
 15 16  2  0
 15 17  1  0
 17 18  2  3
 18 19  1  0
 18 20  1  0
 14 21  1  0
 21 22  2  0
 22  3  1  0
 10  5  1  0
 22 11  1  0
M  END
>  <assay_chembl_id>  (431) 
CHEMBL3381335

>  <assay_description>  (431) 
Displacement of [3H]mesulergine from human 5-HT2B receptor expressed in HEK293 cells

>  <parent_molecule_chembl_id>  (431) 
CHEMBL3545801

>  <canonical_smiles>  (431) 
CCC1(O)c2ccccc2-c2ccc(C(=O)N=C(N)N)cc21.Cl

>  <standard_type>  (431) 
Ki

>  <standard_relation>  (431) 
=

>  <standard_value>  (431) 
41.0

>  <standard_units>  (431) 
nM

>  <target_pref_name>  (431) 
Serotonin 2b (5-HT2b) receptor

>  <target_chembl_id>  (431) 
CHEMBL1833

>  <target_organism>  (431) 
Homo sapiens

>  <pchembl_median>  (431) 
6.91

$$$$
CHEMBL3343664
     RDKit          2D

 25 26  0  0  0  0  0  0  0  0999 V2000
    6.3812   -3.2688    0.0000 C   0  0  0  0  0  0  0  0  0  0  0  0
    5.1677   -2.3871    0.0000 C   0  0  0  0  0  0  0  0  0  0  0  0
    3.7974   -2.9972    0.0000 C   0  0  0  0  0  0  0  0  0  0  0  0
    2.5838   -2.1155    0.0000 C   0  0  0  0  0  0  0  0  0  0  0  0
    1.2135   -2.7256    0.0000 C   0  0  0  0  0  0  0  0  0  0  0  0
    1.9635   -4.0247    0.0000 O   0  0  0  0  0  0  0  0  0  0  0  0
    0.7500   -1.2990    0.0000 C   0  0  0  0  0  0  0  0  0  0  0  0
    1.5000    0.0000    0.0000 C   0  0  0  0  0  0  0  0  0  0  0  0
    0.7500    1.2990    0.0000 C   0  0  0  0  0  0  0  0  0  0  0  0
   -0.7500    1.2990    0.0000 C   0  0  0  0  0  0  0  0  0  0  0  0
   -1.5000    0.0000    0.0000 C   0  0  0  0  0  0  0  0  0  0  0  0
   -0.7500   -1.2990    0.0000 C   0  0  0  0  0  0  0  0  0  0  0  0
   -1.2135   -2.7256    0.0000 C   0  0  0  0  0  0  0  0  0  0  0  0
   -2.5838   -3.3357    0.0000 C   0  0  0  0  0  0  0  0  0  0  0  0
   -2.7406   -4.8275    0.0000 C   0  0  0  0  0  0  0  0  0  0  0  0
   -1.5271   -5.7092    0.0000 C   0  0  0  0  0  0  0  0  0  0  0  0
   -1.6839   -7.2010    0.0000 C   0  0  0  0  0  0  0  0  0  0  0  0
   -0.4704   -8.0826    0.0000 O   0  0  0  0  0  0  0  0  0  0  0  0
   -3.0542   -7.8111    0.0000 N   0  0  0  0  0  0  0  0  0  0  0  0
   -3.2110   -9.3029    0.0000 C   0  0  0  0  0  0  0  0  0  0  0  0
   -4.5813   -9.9130    0.0000 N   0  0  0  0  0  0  0  0  0  0  0  0
   -1.9975  -10.1845    0.0000 N   0  0  0  0  0  0  0  0  0  0  0  0
   -0.1568   -5.0991    0.0000 C   0  0  0  0  0  0  0  0  0  0  0  0
   -0.0000   -3.6073    0.0000 C   0  0  0  0  0  0  0  0  0  0  0  0
    7.3812    0.0000    0.0000 Cl  0  0  0  0  0  0  0  0  0  0  0  0
  1  2  1  0
  2  3  1  0
  3  4  1  0
  4  5  1  0
  5  6  1  0
  5  7  1  0
  7  8  2  0
  8  9  1  0
  9 10  2  0
 10 11  1  0
 11 12  2  0
 12 13  1  0
 13 14  2  0
 14 15  1  0
 15 16  2  0
 16 17  1  0
 17 18  2  0
 17 19  1  0
 19 20  2  3
 20 21  1  0
 20 22  1  0
 16 23  1  0
 23 24  2  0
 24  5  1  0
 12  7  1  0
 24 13  1  0
M  END
>  <assay_chembl_id>  (432) 
CHEMBL3381335

>  <assay_description>  (432) 
Displacement of [3H]mesulergine from human 5-HT2B receptor expressed in HEK293 cells

>  <parent_molecule_chembl_id>  (432) 
CHEMBL3545802

>  <canonical_smiles>  (432) 
CCCCC1(O)c2ccccc2-c2ccc(C(=O)N=C(N)N)cc21.Cl

>  <standard_type>  (432) 
Ki

>  <standard_relation>  (432) 
=

>  <standard_value>  (432) 
31.0

>  <standard_units>  (432) 
nM

>  <target_pref_name>  (432) 
Serotonin 2b (5-HT2b) receptor

>  <target_chembl_id>  (432) 
CHEMBL1833

>  <target_organism>  (432) 
Homo sapiens

>  <pchembl_median>  (432) 
6.47

$$$$
CHEMBL3343665
     RDKit          2D

 23 24  0  0  0  0  0  0  0  0999 V2000
    3.4635   -4.0247    0.0000 C   0  0  0  0  0  0  0  0  0  0  0  0
    1.9635   -4.0247    0.0000 O   0  0  0  0  0  0  0  0  0  0  0  0
    1.2135   -2.7256    0.0000 C   0  0  0  0  0  0  0  0  0  0  0  0
    2.5838   -2.1155    0.0000 C   0  0  0  0  0  0  0  0  0  0  0  0
    0.7500   -1.2990    0.0000 C   0  0  0  0  0  0  0  0  0  0  0  0
    1.5000    0.0000    0.0000 C   0  0  0  0  0  0  0  0  0  0  0  0
    0.7500    1.2990    0.0000 C   0  0  0  0  0  0  0  0  0  0  0  0
   -0.7500    1.2990    0.0000 C   0  0  0  0  0  0  0  0  0  0  0  0
   -1.5000    0.0000    0.0000 C   0  0  0  0  0  0  0  0  0  0  0  0
   -0.7500   -1.2990    0.0000 C   0  0  0  0  0  0  0  0  0  0  0  0
   -1.2135   -2.7256    0.0000 C   0  0  0  0  0  0  0  0  0  0  0  0
   -2.5838   -3.3357    0.0000 C   0  0  0  0  0  0  0  0  0  0  0  0
   -2.7406   -4.8275    0.0000 C   0  0  0  0  0  0  0  0  0  0  0  0
   -1.5271   -5.7092    0.0000 C   0  0  0  0  0  0  0  0  0  0  0  0
   -1.6839   -7.2010    0.0000 C   0  0  0  0  0  0  0  0  0  0  0  0
   -0.4704   -8.0826    0.0000 O   0  0  0  0  0  0  0  0  0  0  0  0
   -3.0542   -7.8111    0.0000 N   0  0  0  0  0  0  0  0  0  0  0  0
   -3.2110   -9.3029    0.0000 C   0  0  0  0  0  0  0  0  0  0  0  0
   -4.5813   -9.9130    0.0000 N   0  0  0  0  0  0  0  0  0  0  0  0
   -1.9975  -10.1845    0.0000 N   0  0  0  0  0  0  0  0  0  0  0  0
   -0.1568   -5.0991    0.0000 C   0  0  0  0  0  0  0  0  0  0  0  0
   -0.0000   -3.6073    0.0000 C   0  0  0  0  0  0  0  0  0  0  0  0
    4.4635    0.0000    0.0000 Cl  0  0  0  0  0  0  0  0  0  0  0  0
  1  2  1  0
  2  3  1  0
  3  4  1  0
  3  5  1  0
  5  6  2  0
  6  7  1  0
  7  8  2  0
  8  9  1  0
  9 10  2  0
 10 11  1  0
 11 12  2  0
 12 13  1  0
 13 14  2  0
 14 15  1  0
 15 16  2  0
 15 17  1  0
 17 18  2  3
 18 19  1  0
 18 20  1  0
 14 21  1  0
 21 22  2  0
 22  3  1  0
 10  5  1  0
 22 11  1  0
M  END
>  <assay_chembl_id>  (433) 
CHEMBL3381335

>  <assay_description>  (433) 
Displacement of [3H]mesulergine from human 5-HT2B receptor expressed in HEK293 cells

>  <parent_molecule_chembl_id>  (433) 
CHEMBL3545814

>  <canonical_smiles>  (433) 
COC1(C)c2ccccc2-c2ccc(C(=O)N=C(N)N)cc21.Cl

>  <standard_type>  (433) 
Ki

>  <standard_relation>  (433) 
=

>  <standard_value>  (433) 
3.3

>  <standard_units>  (433) 
nM

>  <target_pref_name>  (433) 
Serotonin 2b (5-HT2b) receptor

>  <target_chembl_id>  (433) 
CHEMBL1833

>  <target_organism>  (433) 
Homo sapiens

>  <pchembl_median>  (433) 
6.12

$$$$
CHEMBL3343666
     RDKit          2D

 24 25  0  0  0  0  0  0  0  0999 V2000
    3.7974   -2.9972    0.0000 C   0  0  0  0  0  0  0  0  0  0  0  0
    2.5838   -2.1155    0.0000 C   0  0  0  0  0  0  0  0  0  0  0  0
    1.2135   -2.7256    0.0000 C   0  0  0  0  0  0  0  0  0  0  0  0
    1.9635   -4.0247    0.0000 O   0  0  0  0  0  0  0  0  0  0  0  0
    3.4635   -4.0247    0.0000 C   0  0  0  0  0  0  0  0  0  0  0  0
    0.7500   -1.2990    0.0000 C   0  0  0  0  0  0  0  0  0  0  0  0
    1.5000    0.0000    0.0000 C   0  0  0  0  0  0  0  0  0  0  0  0
    0.7500    1.2990    0.0000 C   0  0  0  0  0  0  0  0  0  0  0  0
   -0.7500    1.2990    0.0000 C   0  0  0  0  0  0  0  0  0  0  0  0
   -1.5000    0.0000    0.0000 C   0  0  0  0  0  0  0  0  0  0  0  0
   -0.7500   -1.2990    0.0000 C   0  0  0  0  0  0  0  0  0  0  0  0
   -1.2135   -2.7256    0.0000 C   0  0  0  0  0  0  0  0  0  0  0  0
   -2.5838   -3.3357    0.0000 C   0  0  0  0  0  0  0  0  0  0  0  0
   -2.7406   -4.8275    0.0000 C   0  0  0  0  0  0  0  0  0  0  0  0
   -1.5271   -5.7092    0.0000 C   0  0  0  0  0  0  0  0  0  0  0  0
   -1.6839   -7.2010    0.0000 C   0  0  0  0  0  0  0  0  0  0  0  0
   -0.4704   -8.0826    0.0000 O   0  0  0  0  0  0  0  0  0  0  0  0
   -3.0542   -7.8111    0.0000 N   0  0  0  0  0  0  0  0  0  0  0  0
   -3.2110   -9.3029    0.0000 C   0  0  0  0  0  0  0  0  0  0  0  0
   -4.5813   -9.9130    0.0000 N   0  0  0  0  0  0  0  0  0  0  0  0
   -1.9975  -10.1845    0.0000 N   0  0  0  0  0  0  0  0  0  0  0  0
   -0.1568   -5.0991    0.0000 C   0  0  0  0  0  0  0  0  0  0  0  0
   -0.0000   -3.6073    0.0000 C   0  0  0  0  0  0  0  0  0  0  0  0
    4.7974    0.0000    0.0000 Cl  0  0  0  0  0  0  0  0  0  0  0  0
  1  2  1  0
  2  3  1  0
  3  4  1  0
  4  5  1  0
  3  6  1  0
  6  7  2  0
  7  8  1  0
  8  9  2  0
  9 10  1  0
 10 11  2  0
 11 12  1  0
 12 13  2  0
 13 14  1  0
 14 15  2  0
 15 16  1  0
 16 17  2  0
 16 18  1  0
 18 19  2  3
 19 20  1  0
 19 21  1  0
 15 22  1  0
 22 23  2  0
 23  3  1  0
 11  6  1  0
 23 12  1  0
M  END
>  <assay_chembl_id>  (434) 
CHEMBL3381335

>  <assay_description>  (434) 
Displacement of [3H]mesulergine from human 5-HT2B receptor expressed in HEK293 cells

>  <parent_molecule_chembl_id>  (434) 
CHEMBL3545815

>  <canonical_smiles>  (434) 
CCC1(OC)c2ccccc2-c2ccc(C(=O)N=C(N)N)cc21.Cl

>  <standard_type>  (434) 
Ki

>  <standard_relation>  (434) 
=

>  <standard_value>  (434) 
4.8

>  <standard_units>  (434) 
nM

>  <target_pref_name>  (434) 
Serotonin 2b (5-HT2b) receptor

>  <target_chembl_id>  (434) 
CHEMBL1833

>  <target_organism>  (434) 
Homo sapiens

>  <pchembl_median>  (434) 
5.9

$$$$
CHEMBL3343667
     RDKit          2D

 25 26  0  0  0  0  0  0  0  0999 V2000
    5.1677   -2.3871    0.0000 C   0  0  0  0  0  0  0  0  0  0  0  0
    3.7974   -2.9972    0.0000 O   0  0  0  0  0  0  0  0  0  0  0  0
    2.5838   -2.1155    0.0000 C   0  0  0  0  0  0  0  0  0  0  0  0
    1.2135   -2.7256    0.0000 C   0  0  0  0  0  0  0  0  0  0  0  0
    1.9635   -4.0247    0.0000 O   0  0  0  0  0  0  0  0  0  0  0  0
    3.4635   -4.0247    0.0000 C   0  0  0  0  0  0  0  0  0  0  0  0
    0.7500   -1.2990    0.0000 C   0  0  0  0  0  0  0  0  0  0  0  0
    1.5000    0.0000    0.0000 C   0  0  0  0  0  0  0  0  0  0  0  0
    0.7500    1.2990    0.0000 C   0  0  0  0  0  0  0  0  0  0  0  0
   -0.7500    1.2990    0.0000 C   0  0  0  0  0  0  0  0  0  0  0  0
   -1.5000    0.0000    0.0000 C   0  0  0  0  0  0  0  0  0  0  0  0
   -0.7500   -1.2990    0.0000 C   0  0  0  0  0  0  0  0  0  0  0  0
   -1.2135   -2.7256    0.0000 C   0  0  0  0  0  0  0  0  0  0  0  0
   -2.5838   -3.3357    0.0000 C   0  0  0  0  0  0  0  0  0  0  0  0
   -2.7406   -4.8275    0.0000 C   0  0  0  0  0  0  0  0  0  0  0  0
   -1.5271   -5.7092    0.0000 C   0  0  0  0  0  0  0  0  0  0  0  0
   -1.6839   -7.2010    0.0000 C   0  0  0  0  0  0  0  0  0  0  0  0
   -0.4704   -8.0826    0.0000 O   0  0  0  0  0  0  0  0  0  0  0  0
   -3.0542   -7.8111    0.0000 N   0  0  0  0  0  0  0  0  0  0  0  0
   -3.2110   -9.3029    0.0000 C   0  0  0  0  0  0  0  0  0  0  0  0
   -4.5813   -9.9130    0.0000 N   0  0  0  0  0  0  0  0  0  0  0  0
   -1.9975  -10.1845    0.0000 N   0  0  0  0  0  0  0  0  0  0  0  0
   -0.1568   -5.0991    0.0000 C   0  0  0  0  0  0  0  0  0  0  0  0
   -0.0000   -3.6073    0.0000 C   0  0  0  0  0  0  0  0  0  0  0  0
    6.1677    0.0000    0.0000 Cl  0  0  0  0  0  0  0  0  0  0  0  0
  1  2  1  0
  2  3  1  0
  3  4  1  0
  4  5  1  0
  5  6  1  0
  4  7  1  0
  7  8  2  0
  8  9  1  0
  9 10  2  0
 10 11  1  0
 11 12  2  0
 12 13  1  0
 13 14  2  0
 14 15  1  0
 15 16  2  0
 16 17  1  0
 17 18  2  0
 17 19  1  0
 19 20  2  3
 20 21  1  0
 20 22  1  0
 16 23  1  0
 23 24  2  0
 24  4  1  0
 12  7  1  0
 24 13  1  0
M  END
>  <assay_chembl_id>  (435) 
CHEMBL3381335

>  <assay_description>  (435) 
Displacement of [3H]mesulergine from human 5-HT2B receptor expressed in HEK293 cells

>  <parent_molecule_chembl_id>  (435) 
CHEMBL3545762

>  <canonical_smiles>  (435) 
COCC1(OC)c2ccccc2-c2ccc(C(=O)N=C(N)N)cc21.Cl

>  <standard_type>  (435) 
Ki

>  <standard_relation>  (435) 
=

>  <standard_value>  (435) 
2.0

>  <standard_units>  (435) 
nM

>  <target_pref_name>  (435) 
Serotonin 2b (5-HT2b) receptor

>  <target_chembl_id>  (435) 
CHEMBL1833

>  <target_organism>  (435) 
Homo sapiens

>  <pchembl_median>  (435) 
5.77

$$$$
CHEMBL3343668
     RDKit          2D

 22 24  0  0  0  0  0  0  0  0999 V2000
    0.0000    6.0548    0.0000 Cl  0  0  0  0  0  0  0  0  0  0  0  0
   -9.5487   -0.7137    0.0000 N   0  0  0  0  0  0  0  0  0  0  0  0
   -8.1221   -1.1772    0.0000 C   0  0  0  0  0  0  0  0  0  0  0  0
   -7.8102   -2.6445    0.0000 N   0  0  0  0  0  0  0  0  0  0  0  0
   -7.0074   -0.1735    0.0000 N   0  0  0  0  0  0  0  0  0  0  0  0
   -5.5808   -0.6371    0.0000 C   0  0  0  0  0  0  0  0  0  0  0  0
   -5.2689   -2.1043    0.0000 O   0  0  0  0  0  0  0  0  0  0  0  0
   -4.4661    0.3666    0.0000 C   0  0  0  0  0  0  0  0  0  0  0  0
   -4.7780    1.8338    0.0000 C   0  0  0  0  0  0  0  0  0  0  0  0
   -3.6632    2.8375    0.0000 C   0  0  0  0  0  0  0  0  0  0  0  0
   -2.2367    2.3740    0.0000 C   0  0  0  0  0  0  0  0  0  0  0  0
   -1.9248    0.9068    0.0000 C   0  0  0  0  0  0  0  0  0  0  0  0
   -3.0395   -0.0969    0.0000 C   0  0  0  0  0  0  0  0  0  0  0  0
   -0.4330    0.7500    0.0000 C   0  0  0  0  0  0  0  0  0  0  0  0
    0.8660    0.0000    0.0000 C   0  0  0  0  0  0  0  0  0  0  0  0
   -0.4330   -0.7500    0.0000 C   0  0  0  0  0  0  0  0  0  0  0  0
    0.1771    2.1203    0.0000 C   0  0  0  0  0  0  0  0  0  0  0  0
    1.6037    2.5838    0.0000 C   0  0  0  0  0  0  0  0  0  0  0  0
    1.9155    4.0511    0.0000 C   0  0  0  0  0  0  0  0  0  0  0  0
    0.8008    5.0548    0.0000 C   0  0  0  0  0  0  0  0  0  0  0  0
   -0.6258    4.5912    0.0000 C   0  0  0  0  0  0  0  0  0  0  0  0
   -0.9376    3.1240    0.0000 C   0  0  0  0  0  0  0  0  0  0  0  0
  2  3  1  0
  3  4  1  0
  3  5  2  3
  5  6  1  0
  6  7  2  0
  6  8  1  0
  8  9  2  0
  9 10  1  0
 10 11  2  0
 11 12  1  0
 12 13  2  0
 12 14  1  0
 14 15  1  0
 15 16  1  0
 14 17  1  0
 17 18  2  0
 18 19  1  0
 19 20  2  0
 20 21  1  0
 21 22  2  0
 13  8  1  0
 16 14  1  0
 22 17  1  0
 22 11  1  0
M  END
>  <assay_chembl_id>  (436) 
CHEMBL3381335

>  <assay_description>  (436) 
Displacement of [3H]mesulergine from human 5-HT2B receptor expressed in HEK293 cells

>  <parent_molecule_chembl_id>  (436) 
CHEMBL3545816

>  <canonical_smiles>  (436) 
Cl.NC(N)=NC(=O)c1ccc2c(c1)C1(CC1)c1ccccc1-2

>  <standard_type>  (436) 
Ki

>  <standard_relation>  (436) 
=

>  <standard_value>  (436) 
0.51

>  <standard_units>  (436) 
nM

>  <target_pref_name>  (436) 
Serotonin 2b (5-HT2b) receptor

>  <target_chembl_id>  (436) 
CHEMBL1833

>  <target_organism>  (436) 
Homo sapiens

>  <pchembl_median>  (436) 
6.69

$$$$
CHEMBL3343669
     RDKit          2D

 24 26  0  0  0  0  0  0  0  0999 V2000
    0.0000    8.0084    0.0000 Cl  0  0  0  0  0  0  0  0  0  0  0  0
   -6.7930    7.0084    0.0000 N   0  0  0  0  0  0  0  0  0  0  0  0
   -6.1829    5.6381    0.0000 C   0  0  0  0  0  0  0  0  0  0  0  0
   -7.0646    4.4245    0.0000 N   0  0  0  0  0  0  0  0  0  0  0  0
   -4.6912    5.4813    0.0000 N   0  0  0  0  0  0  0  0  0  0  0  0
   -4.0811    4.1110    0.0000 C   0  0  0  0  0  0  0  0  0  0  0  0
   -4.9627    2.8974    0.0000 O   0  0  0  0  0  0  0  0  0  0  0  0
   -2.5893    3.9542    0.0000 C   0  0  0  0  0  0  0  0  0  0  0  0
   -1.7076    5.1677    0.0000 C   0  0  0  0  0  0  0  0  0  0  0  0
   -0.2158    5.0109    0.0000 C   0  0  0  0  0  0  0  0  0  0  0  0
    0.3943    3.6406    0.0000 C   0  0  0  0  0  0  0  0  0  0  0  0
   -0.4874    2.4271    0.0000 C   0  0  0  0  0  0  0  0  0  0  0  0
   -1.9792    2.5838    0.0000 C   0  0  0  0  0  0  0  0  0  0  0  0
    0.3943    1.2135    0.0000 C   0  0  0  0  0  0  0  0  0  0  0  0
    1.2760    0.0000    0.0000 C   0  0  0  0  0  0  0  0  0  0  0  0
    0.3943   -1.2135    0.0000 C   0  0  0  0  0  0  0  0  0  0  0  0
   -1.0323   -0.7500    0.0000 C   0  0  0  0  0  0  0  0  0  0  0  0
   -1.0323    0.7500    0.0000 C   0  0  0  0  0  0  0  0  0  0  0  0
    1.8209    1.6771    0.0000 C   0  0  0  0  0  0  0  0  0  0  0  0
    3.1199    0.9271    0.0000 C   0  0  0  0  0  0  0  0  0  0  0  0
    4.4190    1.6771    0.0000 C   0  0  0  0  0  0  0  0  0  0  0  0
    4.4190    3.1771    0.0000 C   0  0  0  0  0  0  0  0  0  0  0  0
    3.1199    3.9271    0.0000 C   0  0  0  0  0  0  0  0  0  0  0  0
    1.8209    3.1771    0.0000 C   0  0  0  0  0  0  0  0  0  0  0  0
  2  3  1  0
  3  4  1  0
  3  5  2  3
  5  6  1  0
  6  7  2  0
  6  8  1  0
  8  9  2  0
  9 10  1  0
 10 11  2  0
 11 12  1  0
 12 13  2  0
 12 14  1  0
 14 15  1  0
 15 16  1  0
 16 17  1  0
 17 18  1  0
 14 19  1  0
 19 20  2  0
 20 21  1  0
 21 22  2  0
 22 23  1  0
 23 24  2  0
 13  8  1  0
 18 14  1  0
 24 19  1  0
 24 11  1  0
M  END
>  <assay_chembl_id>  (437) 
CHEMBL3381335

>  <assay_description>  (437) 
Displacement of [3H]mesulergine from human 5-HT2B receptor expressed in HEK293 cells

>  <parent_molecule_chembl_id>  (437) 
CHEMBL3545811

>  <canonical_smiles>  (437) 
Cl.NC(N)=NC(=O)c1ccc2c(c1)C1(CCCC1)c1ccccc1-2

>  <standard_type>  (437) 
Ki

>  <standard_relation>  (437) 
=

>  <standard_value>  (437) 
1.7

>  <standard_units>  (437) 
nM

>  <target_pref_name>  (437) 
Serotonin 2b (5-HT2b) receptor

>  <target_chembl_id>  (437) 
CHEMBL1833

>  <target_organism>  (437) 
Homo sapiens

>  <pchembl_median>  (437) 
5.93

$$$$
CHEMBL3343670
     RDKit          2D

 24 26  0  0  0  0  0  0  0  0999 V2000
    0.0000    8.0084    0.0000 Cl  0  0  0  0  0  0  0  0  0  0  0  0
   -6.7930    7.0084    0.0000 N   0  0  0  0  0  0  0  0  0  0  0  0
   -6.1829    5.6381    0.0000 C   0  0  0  0  0  0  0  0  0  0  0  0
   -7.0646    4.4245    0.0000 N   0  0  0  0  0  0  0  0  0  0  0  0
   -4.6912    5.4813    0.0000 N   0  0  0  0  0  0  0  0  0  0  0  0
   -4.0811    4.1110    0.0000 C   0  0  0  0  0  0  0  0  0  0  0  0
   -4.9627    2.8974    0.0000 O   0  0  0  0  0  0  0  0  0  0  0  0
   -2.5893    3.9542    0.0000 C   0  0  0  0  0  0  0  0  0  0  0  0
   -1.7076    5.1677    0.0000 C   0  0  0  0  0  0  0  0  0  0  0  0
   -0.2158    5.0109    0.0000 C   0  0  0  0  0  0  0  0  0  0  0  0
    0.3943    3.6406    0.0000 C   0  0  0  0  0  0  0  0  0  0  0  0
   -0.4874    2.4271    0.0000 C   0  0  0  0  0  0  0  0  0  0  0  0
   -1.9792    2.5838    0.0000 C   0  0  0  0  0  0  0  0  0  0  0  0
    0.3943    1.2135    0.0000 C   0  0  0  0  0  0  0  0  0  0  0  0
    1.2760    0.0000    0.0000 C   0  0  0  0  0  0  0  0  0  0  0  0
    0.3943   -1.2135    0.0000 C   0  0  0  0  0  0  0  0  0  0  0  0
   -1.0323   -0.7500    0.0000 C   0  0  0  0  0  0  0  0  0  0  0  0
   -1.0323    0.7500    0.0000 O   0  0  0  0  0  0  0  0  0  0  0  0
    1.8209    1.6771    0.0000 C   0  0  0  0  0  0  0  0  0  0  0  0
    3.1199    0.9271    0.0000 C   0  0  0  0  0  0  0  0  0  0  0  0
    4.4190    1.6771    0.0000 C   0  0  0  0  0  0  0  0  0  0  0  0
    4.4190    3.1771    0.0000 C   0  0  0  0  0  0  0  0  0  0  0  0
    3.1199    3.9271    0.0000 C   0  0  0  0  0  0  0  0  0  0  0  0
    1.8209    3.1771    0.0000 C   0  0  0  0  0  0  0  0  0  0  0  0
  2  3  1  0
  3  4  1  0
  3  5  2  3
  5  6  1  0
  6  7  2  0
  6  8  1  0
  8  9  2  0
  9 10  1  0
 10 11  2  0
 11 12  1  0
 12 13  2  0
 12 14  1  0
 14 15  1  0
 15 16  1  0
 16 17  1  0
 17 18  1  0
 14 19  1  0
 19 20  2  0
 20 21  1  0
 21 22  2  0
 22 23  1  0
 23 24  2  0
 13  8  1  0
 18 14  1  0
 24 19  1  0
 24 11  1  0
M  END
>  <assay_chembl_id>  (438) 
CHEMBL3381335

>  <assay_description>  (438) 
Displacement of [3H]mesulergine from human 5-HT2B receptor expressed in HEK293 cells

>  <parent_molecule_chembl_id>  (438) 
CHEMBL3545812

>  <canonical_smiles>  (438) 
Cl.NC(N)=NC(=O)c1ccc2c(c1)C1(CCCO1)c1ccccc1-2

>  <standard_type>  (438) 
Ki

>  <standard_relation>  (438) 
=

>  <standard_value>  (438) 
5.1

>  <standard_units>  (438) 
nM

>  <target_pref_name>  (438) 
Serotonin 2b (5-HT2b) receptor

>  <target_chembl_id>  (438) 
CHEMBL1833

>  <target_organism>  (438) 
Homo sapiens

>  <pchembl_median>  (438) 
6.08

$$$$
CHEMBL3343671
     RDKit          2D

 25 27  0  0  0  0  0  0  0  0999 V2000
    0.0000    3.0954    0.0000 Cl  0  0  0  0  0  0  0  0  0  0  0  0
    9.8657    0.1647    0.0000 N   0  0  0  0  0  0  0  0  0  0  0  0
    8.4391    0.6282    0.0000 C   0  0  0  0  0  0  0  0  0  0  0  0
    8.1272    2.0954    0.0000 N   0  0  0  0  0  0  0  0  0  0  0  0
    7.3244   -0.3755    0.0000 N   0  0  0  0  0  0  0  0  0  0  0  0
    5.8978    0.0880    0.0000 C   0  0  0  0  0  0  0  0  0  0  0  0
    5.5859    1.5553    0.0000 O   0  0  0  0  0  0  0  0  0  0  0  0
    4.7831   -0.9157    0.0000 C   0  0  0  0  0  0  0  0  0  0  0  0
    5.0950   -2.3829    0.0000 C   0  0  0  0  0  0  0  0  0  0  0  0
    3.9802   -3.3866    0.0000 C   0  0  0  0  0  0  0  0  0  0  0  0
    2.5537   -2.9231    0.0000 C   0  0  0  0  0  0  0  0  0  0  0  0
    2.2418   -1.4558    0.0000 C   0  0  0  0  0  0  0  0  0  0  0  0
    3.3565   -0.4521    0.0000 C   0  0  0  0  0  0  0  0  0  0  0  0
    0.7500   -1.2990    0.0000 C   0  0  0  0  0  0  0  0  0  0  0  0
    1.5000    0.0000    0.0000 C   0  0  0  0  0  0  0  0  0  0  0  0
    0.7500    1.2990    0.0000 C   0  0  0  0  0  0  0  0  0  0  0  0
   -0.7500    1.2990    0.0000 O   0  0  0  0  0  0  0  0  0  0  0  0
   -1.5000    0.0000    0.0000 C   0  0  0  0  0  0  0  0  0  0  0  0
   -0.7500   -1.2990    0.0000 C   0  0  0  0  0  0  0  0  0  0  0  0
    0.1399   -2.6694    0.0000 C   0  0  0  0  0  0  0  0  0  0  0  0
   -1.2867   -3.1329    0.0000 C   0  0  0  0  0  0  0  0  0  0  0  0
   -1.5986   -4.6001    0.0000 C   0  0  0  0  0  0  0  0  0  0  0  0
   -0.4838   -5.6038    0.0000 C   0  0  0  0  0  0  0  0  0  0  0  0
    0.9427   -5.1403    0.0000 C   0  0  0  0  0  0  0  0  0  0  0  0
    1.2546   -3.6731    0.0000 C   0  0  0  0  0  0  0  0  0  0  0  0
  2  3  1  0
  3  4  1  0
  3  5  2  3
  5  6  1  0
  6  7  2  0
  6  8  1  0
  8  9  2  0
  9 10  1  0
 10 11  2  0
 11 12  1  0
 12 13  2  0
 12 14  1  0
 14 15  1  0
 15 16  1  0
 16 17  1  0
 17 18  1  0
 18 19  1  0
 14 20  1  0
 20 21  2  0
 21 22  1  0
 22 23  2  0
 23 24  1  0
 24 25  2  0
 13  8  1  0
 19 14  1  0
 25 20  1  0
 25 11  1  0
M  END
>  <assay_chembl_id>  (439) 
CHEMBL3381335

>  <assay_description>  (439) 
Displacement of [3H]mesulergine from human 5-HT2B receptor expressed in HEK293 cells

>  <parent_molecule_chembl_id>  (439) 
CHEMBL3545813

>  <canonical_smiles>  (439) 
Cl.NC(N)=NC(=O)c1ccc2c(c1)C1(CCOCC1)c1ccccc1-2

>  <standard_type>  (439) 
Ki

>  <standard_relation>  (439) 
=

>  <standard_value>  (439) 
9.1

>  <standard_units>  (439) 
nM

>  <target_pref_name>  (439) 
Serotonin 2b (5-HT2b) receptor

>  <target_chembl_id>  (439) 
CHEMBL1833

>  <target_organism>  (439) 
Homo sapiens

>  <pchembl_median>  (439) 
5.2

$$$$
CHEMBL3343672
     RDKit          2D

 23 26  0  0  0  0  0  0  0  0999 V2000
   -6.7930    7.0084    0.0000 N   0  0  0  0  0  0  0  0  0  0  0  0
   -6.1829    5.6381    0.0000 C   0  0  0  0  0  0  0  0  0  0  0  0
   -7.0646    4.4245    0.0000 N   0  0  0  0  0  0  0  0  0  0  0  0
   -4.6912    5.4813    0.0000 N   0  0  0  0  0  0  0  0  0  0  0  0
   -4.0811    4.1110    0.0000 C   0  0  0  0  0  0  0  0  0  0  0  0
   -4.9627    2.8974    0.0000 O   0  0  0  0  0  0  0  0  0  0  0  0
   -2.5893    3.9542    0.0000 C   0  0  0  0  0  0  0  0  0  0  0  0
   -1.7076    5.1677    0.0000 C   0  0  0  0  0  0  0  0  0  0  0  0
   -0.2158    5.0109    0.0000 C   0  0  0  0  0  0  0  0  0  0  0  0
    0.3943    3.6406    0.0000 C   0  0  0  0  0  0  0  0  0  0  0  0
   -0.4874    2.4271    0.0000 C   0  0  0  0  0  0  0  0  0  0  0  0
   -1.9792    2.5838    0.0000 C   0  0  0  0  0  0  0  0  0  0  0  0
    0.3943    1.2135    0.0000 C   0  0  0  0  0  0  0  0  0  0  0  0
    1.2760    0.0000    0.0000 C   0  0  0  0  0  0  0  0  0  0  0  0
    0.3943   -1.2135    0.0000 C   0  0  0  0  0  0  0  0  0  0  0  0
   -1.0323   -0.7500    0.0000 C   0  0  0  0  0  0  0  0  0  0  0  0
   -1.0323    0.7500    0.0000 O   0  0  0  0  0  0  0  0  0  0  0  0
    1.8209    1.6771    0.0000 C   0  0  0  0  0  0  0  0  0  0  0  0
    3.1199    0.9271    0.0000 C   0  0  0  0  0  0  0  0  0  0  0  0
    4.4190    1.6771    0.0000 C   0  0  0  0  0  0  0  0  0  0  0  0
    4.4190    3.1771    0.0000 C   0  0  0  0  0  0  0  0  0  0  0  0
    3.1199    3.9271    0.0000 C   0  0  0  0  0  0  0  0  0  0  0  0
    1.8209    3.1771    0.0000 C   0  0  0  0  0  0  0  0  0  0  0  0
  1  2  1  0
  2  3  1  0
  2  4  2  3
  4  5  1  0
  5  6  2  0
  5  7  1  0
  7  8  2  0
  8  9  1  0
  9 10  2  0
 10 11  1  0
 11 12  2  0
 11 13  1  0
 13 14  1  1
 14 15  1  0
 15 16  1  0
 16 17  1  0
 13 18  1  0
 18 19  2  0
 19 20  1  0
 20 21  2  0
 21 22  1  0
 22 23  2  0
 12  7  1  0
 17 13  1  0
 23 18  1  0
 23 10  1  0
M  END
>  <assay_chembl_id>  (440) 
CHEMBL3381335

>  <assay_description>  (440) 
Displacement of [3H]mesulergine from human 5-HT2B receptor expressed in HEK293 cells

>  <parent_molecule_chembl_id>  (440) 
CHEMBL3343672

>  <canonical_smiles>  (440) 
NC(N)=NC(=O)c1ccc2c(c1)[C@]1(CCCO1)c1ccccc1-2

>  <standard_type>  (440) 
Ki

>  <standard_relation>  (440) 
=

>  <standard_value>  (440) 
2.7

>  <standard_units>  (440) 
nM

>  <target_pref_name>  (440) 
Serotonin 2b (5-HT2b) receptor

>  <target_chembl_id>  (440) 
CHEMBL1833

>  <target_organism>  (440) 
Homo sapiens

>  <pchembl_median>  (440) 
6.05

$$$$
CHEMBL3343673
     RDKit          2D

 23 26  0  0  0  0  0  0  0  0999 V2000
   -6.7930    7.0084    0.0000 N   0  0  0  0  0  0  0  0  0  0  0  0
   -6.1829    5.6381    0.0000 C   0  0  0  0  0  0  0  0  0  0  0  0
   -7.0646    4.4245    0.0000 N   0  0  0  0  0  0  0  0  0  0  0  0
   -4.6912    5.4813    0.0000 N   0  0  0  0  0  0  0  0  0  0  0  0
   -4.0811    4.1110    0.0000 C   0  0  0  0  0  0  0  0  0  0  0  0
   -4.9627    2.8974    0.0000 O   0  0  0  0  0  0  0  0  0  0  0  0
   -2.5893    3.9542    0.0000 C   0  0  0  0  0  0  0  0  0  0  0  0
   -1.7076    5.1677    0.0000 C   0  0  0  0  0  0  0  0  0  0  0  0
   -0.2158    5.0109    0.0000 C   0  0  0  0  0  0  0  0  0  0  0  0
    0.3943    3.6406    0.0000 C   0  0  0  0  0  0  0  0  0  0  0  0
   -0.4874    2.4271    0.0000 C   0  0  0  0  0  0  0  0  0  0  0  0
   -1.9792    2.5838    0.0000 C   0  0  0  0  0  0  0  0  0  0  0  0
    0.3943    1.2135    0.0000 C   0  0  0  0  0  0  0  0  0  0  0  0
    1.2760    0.0000    0.0000 C   0  0  0  0  0  0  0  0  0  0  0  0
    0.3943   -1.2135    0.0000 C   0  0  0  0  0  0  0  0  0  0  0  0
   -1.0323   -0.7500    0.0000 C   0  0  0  0  0  0  0  0  0  0  0  0
   -1.0323    0.7500    0.0000 O   0  0  0  0  0  0  0  0  0  0  0  0
    1.8209    1.6771    0.0000 C   0  0  0  0  0  0  0  0  0  0  0  0
    3.1199    0.9271    0.0000 C   0  0  0  0  0  0  0  0  0  0  0  0
    4.4190    1.6771    0.0000 C   0  0  0  0  0  0  0  0  0  0  0  0
    4.4190    3.1771    0.0000 C   0  0  0  0  0  0  0  0  0  0  0  0
    3.1199    3.9271    0.0000 C   0  0  0  0  0  0  0  0  0  0  0  0
    1.8209    3.1771    0.0000 C   0  0  0  0  0  0  0  0  0  0  0  0
  1  2  1  0
  2  3  1  0
  2  4  2  3
  4  5  1  0
  5  6  2  0
  5  7  1  0
  7  8  2  0
  8  9  1  0
  9 10  2  0
 10 11  1  0
 11 12  2  0
 11 13  1  0
 13 14  1  6
 14 15  1  0
 15 16  1  0
 16 17  1  0
 13 18  1  0
 18 19  2  0
 19 20  1  0
 20 21  2  0
 21 22  1  0
 22 23  2  0
 12  7  1  0
 17 13  1  0
 23 18  1  0
 23 10  1  0
M  END
>  <assay_chembl_id>  (441) 
CHEMBL3381335

>  <assay_description>  (441) 
Displacement of [3H]mesulergine from human 5-HT2B receptor expressed in HEK293 cells

>  <parent_molecule_chembl_id>  (441) 
CHEMBL3343673

>  <canonical_smiles>  (441) 
NC(N)=NC(=O)c1ccc2c(c1)[C@@]1(CCCO1)c1ccccc1-2

>  <standard_type>  (441) 
Ki

>  <standard_relation>  (441) 
=

>  <standard_value>  (441) 
5.1

>  <standard_units>  (441) 
nM

>  <target_pref_name>  (441) 
Serotonin 2b (5-HT2b) receptor

>  <target_chembl_id>  (441) 
CHEMBL1833

>  <target_organism>  (441) 
Homo sapiens

>  <pchembl_median>  (441) 
6.42

$$$$
CHEMBL3402669
     RDKit          2D

 23 24  0  0  0  0  0  0  0  0999 V2000
    0.7500   -6.4952    0.0000 C   0  0  0  0  0  0  0  0  0  0  0  0
    1.5000   -5.1962    0.0000 N   0  0  0  0  0  0  0  0  0  0  0  0
    3.0000   -5.1962    0.0000 C   0  0  0  0  0  0  0  0  0  0  0  0
    0.7500   -3.8971    0.0000 C   0  0  0  0  0  0  0  0  0  0  0  0
    1.5000   -2.5981    0.0000 C   0  0  0  0  0  0  0  0  0  0  0  0
    0.7500   -1.2990    0.0000 C   0  0  0  0  0  0  0  0  0  0  0  0
    1.5000    0.0000    0.0000 C   0  0  0  0  0  0  0  0  0  0  0  0
    0.7500    1.2990    0.0000 C   0  0  0  0  0  0  0  0  0  0  0  0
   -0.7500    1.2990    0.0000 C   0  0  0  0  0  0  0  0  0  0  0  0
   -1.5000    0.0000    0.0000 C   0  0  0  0  0  0  0  0  0  0  0  0
   -0.7500   -1.2990    0.0000 C   0  0  0  0  0  0  0  0  0  0  0  0
   -1.5000   -2.5981    0.0000 C   0  0  0  0  0  0  0  0  0  0  0  0
   -3.0000   -2.5981    0.0000 C   0  0  0  0  0  0  0  0  0  0  0  0
   -3.7500   -1.2990    0.0000 C   0  0  0  0  0  0  0  0  0  0  0  0
   -5.2500   -1.2990    0.0000 C   0  0  0  0  0  0  0  0  0  0  0  0
   -6.0000   -2.5981    0.0000 C   0  0  0  0  0  0  0  0  0  0  0  0
   -5.2500   -3.8971    0.0000 C   0  0  0  0  0  0  0  0  0  0  0  0
   -6.0000   -5.1962    0.0000 N   0  0  0  0  0  4  0  0  0  0  0  0
   -5.2500   -6.4952    0.0000 O   0  0  0  0  0  0  0  0  0  0  0  0
   -7.5000   -5.1962    0.0000 O   0  0  0  0  0  1  0  0  0  0  0  0
   -3.7500   -3.8971    0.0000 C   0  0  0  0  0  0  0  0  0  0  0  0
   -0.7500   -3.8971    0.0000 C   0  0  0  0  0  0  0  0  0  0  0  0
    0.0000    2.2990    0.0000 Cl  0  0  0  0  0  0  0  0  0  0  0  0
  1  2  1  0
  2  3  1  0
  4  2  1  1
  4  5  1  0
  5  6  1  0
  6  7  2  0
  7  8  1  0
  8  9  2  0
  9 10  1  0
 10 11  2  0
 11 12  1  0
 12 13  1  6
 13 14  2  0
 14 15  1  0
 15 16  2  0
 16 17  1  0
 17 18  1  0
 18 19  2  0
 18 20  1  0
 17 21  2  0
 12 22  1  0
 22  4  1  0
 11  6  1  0
 21 13  1  0
M  CHG  2  18   1  20  -1
M  END
>  <assay_chembl_id>  (442) 
CHEMBL3406943

>  <assay_description>  (442) 
Displacement of [3H]Mesulergine from human 5-HT2B receptor expressed in HEK293 cells by scintillation counting analysis

>  <parent_molecule_chembl_id>  (442) 
CHEMBL3547155

>  <canonical_smiles>  (442) 
CN(C)[C@@H]1Cc2ccccc2[C@@H](c2cccc([N+](=O)[O-])c2)C1.Cl

>  <standard_type>  (442) 
Ki

>  <standard_relation>  (442) 
=

>  <standard_value>  (442) 
70.0

>  <standard_units>  (442) 
nM

>  <target_pref_name>  (442) 
Serotonin 2b (5-HT2b) receptor

>  <target_chembl_id>  (442) 
CHEMBL1833

>  <target_organism>  (442) 
Homo sapiens

>  <pchembl_median>  (442) 
6.78

$$$$
CHEMBL3402668
     RDKit          2D

 21 22  0  0  0  0  0  0  0  0999 V2000
    0.7500   -6.4952    0.0000 C   0  0  0  0  0  0  0  0  0  0  0  0
    1.5000   -5.1962    0.0000 N   0  0  0  0  0  0  0  0  0  0  0  0
    3.0000   -5.1962    0.0000 C   0  0  0  0  0  0  0  0  0  0  0  0
    0.7500   -3.8971    0.0000 C   0  0  0  0  0  0  0  0  0  0  0  0
    1.5000   -2.5981    0.0000 C   0  0  0  0  0  0  0  0  0  0  0  0
    0.7500   -1.2990    0.0000 C   0  0  0  0  0  0  0  0  0  0  0  0
    1.5000    0.0000    0.0000 C   0  0  0  0  0  0  0  0  0  0  0  0
    0.7500    1.2990    0.0000 C   0  0  0  0  0  0  0  0  0  0  0  0
   -0.7500    1.2990    0.0000 C   0  0  0  0  0  0  0  0  0  0  0  0
   -1.5000    0.0000    0.0000 C   0  0  0  0  0  0  0  0  0  0  0  0
   -0.7500   -1.2990    0.0000 C   0  0  0  0  0  0  0  0  0  0  0  0
   -1.5000   -2.5981    0.0000 C   0  0  0  0  0  0  0  0  0  0  0  0
   -3.0000   -2.5981    0.0000 C   0  0  0  0  0  0  0  0  0  0  0  0
   -3.7500   -1.2990    0.0000 C   0  0  0  0  0  0  0  0  0  0  0  0
   -5.2500   -1.2990    0.0000 C   0  0  0  0  0  0  0  0  0  0  0  0
   -6.0000   -2.5981    0.0000 C   0  0  0  0  0  0  0  0  0  0  0  0
   -7.5000   -2.5981    0.0000 F   0  0  0  0  0  0  0  0  0  0  0  0
   -5.2500   -3.8971    0.0000 C   0  0  0  0  0  0  0  0  0  0  0  0
   -3.7500   -3.8971    0.0000 C   0  0  0  0  0  0  0  0  0  0  0  0
   -0.7500   -3.8971    0.0000 C   0  0  0  0  0  0  0  0  0  0  0  0
    0.0000    2.2990    0.0000 Cl  0  0  0  0  0  0  0  0  0  0  0  0
  1  2  1  0
  2  3  1  0
  4  2  1  6
  4  5  1  0
  5  6  1  0
  6  7  2  0
  7  8  1  0
  8  9  2  0
  9 10  1  0
 10 11  2  0
 11 12  1  0
 12 13  1  1
 13 14  2  0
 14 15  1  0
 15 16  2  0
 16 17  1  0
 16 18  1  0
 18 19  2  0
 12 20  1  0
 20  4  1  0
 11  6  1  0
 19 13  1  0
M  END
>  <assay_chembl_id>  (443) 
CHEMBL3406943

>  <assay_description>  (443) 
Displacement of [3H]Mesulergine from human 5-HT2B receptor expressed in HEK293 cells by scintillation counting analysis

>  <parent_molecule_chembl_id>  (443) 
CHEMBL3547154

>  <canonical_smiles>  (443) 
CN(C)[C@H]1Cc2ccccc2[C@H](c2ccc(F)cc2)C1.Cl

>  <standard_type>  (443) 
Ki

>  <standard_relation>  (443) 
=

>  <standard_value>  (443) 
66.0

>  <standard_units>  (443) 
nM

>  <target_pref_name>  (443) 
Serotonin 2b (5-HT2b) receptor

>  <target_chembl_id>  (443) 
CHEMBL1833

>  <target_organism>  (443) 
Homo sapiens

>  <pchembl_median>  (443) 
5.9

$$$$
CHEMBL3402667
     RDKit          2D

 21 22  0  0  0  0  0  0  0  0999 V2000
    0.7500   -6.4952    0.0000 C   0  0  0  0  0  0  0  0  0  0  0  0
    1.5000   -5.1962    0.0000 N   0  0  0  0  0  0  0  0  0  0  0  0
    3.0000   -5.1962    0.0000 C   0  0  0  0  0  0  0  0  0  0  0  0
    0.7500   -3.8971    0.0000 C   0  0  0  0  0  0  0  0  0  0  0  0
    1.5000   -2.5981    0.0000 C   0  0  0  0  0  0  0  0  0  0  0  0
    0.7500   -1.2990    0.0000 C   0  0  0  0  0  0  0  0  0  0  0  0
    1.5000    0.0000    0.0000 C   0  0  0  0  0  0  0  0  0  0  0  0
    0.7500    1.2990    0.0000 C   0  0  0  0  0  0  0  0  0  0  0  0
   -0.7500    1.2990    0.0000 C   0  0  0  0  0  0  0  0  0  0  0  0
   -1.5000    0.0000    0.0000 C   0  0  0  0  0  0  0  0  0  0  0  0
   -0.7500   -1.2990    0.0000 C   0  0  0  0  0  0  0  0  0  0  0  0
   -1.5000   -2.5981    0.0000 C   0  0  0  0  0  0  0  0  0  0  0  0
   -3.0000   -2.5981    0.0000 C   0  0  0  0  0  0  0  0  0  0  0  0
   -3.7500   -1.2990    0.0000 C   0  0  0  0  0  0  0  0  0  0  0  0
   -5.2500   -1.2990    0.0000 C   0  0  0  0  0  0  0  0  0  0  0  0
   -6.0000   -2.5981    0.0000 C   0  0  0  0  0  0  0  0  0  0  0  0
   -7.5000   -2.5981    0.0000 F   0  0  0  0  0  0  0  0  0  0  0  0
   -5.2500   -3.8971    0.0000 C   0  0  0  0  0  0  0  0  0  0  0  0
   -3.7500   -3.8971    0.0000 C   0  0  0  0  0  0  0  0  0  0  0  0
   -0.7500   -3.8971    0.0000 C   0  0  0  0  0  0  0  0  0  0  0  0
    0.0000    2.2990    0.0000 Cl  0  0  0  0  0  0  0  0  0  0  0  0
  1  2  1  0
  2  3  1  0
  4  2  1  1
  4  5  1  0
  5  6  1  0
  6  7  2  0
  7  8  1  0
  8  9  2  0
  9 10  1  0
 10 11  2  0
 11 12  1  0
 12 13  1  6
 13 14  2  0
 14 15  1  0
 15 16  2  0
 16 17  1  0
 16 18  1  0
 18 19  2  0
 12 20  1  0
 20  4  1  0
 11  6  1  0
 19 13  1  0
M  END
>  <assay_chembl_id>  (444) 
CHEMBL3406943

>  <assay_description>  (444) 
Displacement of [3H]Mesulergine from human 5-HT2B receptor expressed in HEK293 cells by scintillation counting analysis

>  <parent_molecule_chembl_id>  (444) 
CHEMBL3547153

>  <canonical_smiles>  (444) 
CN(C)[C@@H]1Cc2ccccc2[C@@H](c2ccc(F)cc2)C1.Cl

>  <standard_type>  (444) 
Ki

>  <standard_relation>  (444) 
=

>  <standard_value>  (444) 
400.0

>  <standard_units>  (444) 
nM

>  <target_pref_name>  (444) 
Serotonin 2b (5-HT2b) receptor

>  <target_chembl_id>  (444) 
CHEMBL1833

>  <target_organism>  (444) 
Homo sapiens

>  <pchembl_median>  (444) 
7.07

$$$$
CHEMBL3402666
     RDKit          2D

 21 22  0  0  0  0  0  0  0  0999 V2000
    0.7500   -6.4952    0.0000 C   0  0  0  0  0  0  0  0  0  0  0  0
    1.5000   -5.1962    0.0000 N   0  0  0  0  0  0  0  0  0  0  0  0
    3.0000   -5.1962    0.0000 C   0  0  0  0  0  0  0  0  0  0  0  0
    0.7500   -3.8971    0.0000 C   0  0  0  0  0  0  0  0  0  0  0  0
    1.5000   -2.5981    0.0000 C   0  0  0  0  0  0  0  0  0  0  0  0
    0.7500   -1.2990    0.0000 C   0  0  0  0  0  0  0  0  0  0  0  0
    1.5000    0.0000    0.0000 C   0  0  0  0  0  0  0  0  0  0  0  0
    0.7500    1.2990    0.0000 C   0  0  0  0  0  0  0  0  0  0  0  0
   -0.7500    1.2990    0.0000 C   0  0  0  0  0  0  0  0  0  0  0  0
   -1.5000    0.0000    0.0000 C   0  0  0  0  0  0  0  0  0  0  0  0
   -0.7500   -1.2990    0.0000 C   0  0  0  0  0  0  0  0  0  0  0  0
   -1.5000   -2.5981    0.0000 C   0  0  0  0  0  0  0  0  0  0  0  0
   -3.0000   -2.5981    0.0000 C   0  0  0  0  0  0  0  0  0  0  0  0
   -3.7500   -1.2990    0.0000 C   0  0  0  0  0  0  0  0  0  0  0  0
   -5.2500   -1.2990    0.0000 C   0  0  0  0  0  0  0  0  0  0  0  0
   -6.0000   -2.5981    0.0000 C   0  0  0  0  0  0  0  0  0  0  0  0
   -7.5000   -2.5981    0.0000 Cl  0  0  0  0  0  0  0  0  0  0  0  0
   -5.2500   -3.8971    0.0000 C   0  0  0  0  0  0  0  0  0  0  0  0
   -3.7500   -3.8971    0.0000 C   0  0  0  0  0  0  0  0  0  0  0  0
   -0.7500   -3.8971    0.0000 C   0  0  0  0  0  0  0  0  0  0  0  0
    0.0000    2.2990    0.0000 Cl  0  0  0  0  0  0  0  0  0  0  0  0
  1  2  1  0
  2  3  1  0
  4  2  1  6
  4  5  1  0
  5  6  1  0
  6  7  2  0
  7  8  1  0
  8  9  2  0
  9 10  1  0
 10 11  2  0
 11 12  1  0
 12 13  1  1
 13 14  2  0
 14 15  1  0
 15 16  2  0
 16 17  1  0
 16 18  1  0
 18 19  2  0
 12 20  1  0
 20  4  1  0
 11  6  1  0
 19 13  1  0
M  END
>  <assay_chembl_id>  (445) 
CHEMBL3406943

>  <assay_description>  (445) 
Displacement of [3H]Mesulergine from human 5-HT2B receptor expressed in HEK293 cells by scintillation counting analysis

>  <parent_molecule_chembl_id>  (445) 
CHEMBL3547152

>  <canonical_smiles>  (445) 
CN(C)[C@H]1Cc2ccccc2[C@H](c2ccc(Cl)cc2)C1.Cl

>  <standard_type>  (445) 
Ki

>  <standard_relation>  (445) 
=

>  <standard_value>  (445) 
80.0

>  <standard_units>  (445) 
nM

>  <target_pref_name>  (445) 
Serotonin 2b (5-HT2b) receptor

>  <target_chembl_id>  (445) 
CHEMBL1833

>  <target_organism>  (445) 
Homo sapiens

>  <pchembl_median>  (445) 
5.8

$$$$
CHEMBL3402665
     RDKit          2D

 21 22  0  0  0  0  0  0  0  0999 V2000
    0.7500   -6.4952    0.0000 C   0  0  0  0  0  0  0  0  0  0  0  0
    1.5000   -5.1962    0.0000 N   0  0  0  0  0  0  0  0  0  0  0  0
    3.0000   -5.1962    0.0000 C   0  0  0  0  0  0  0  0  0  0  0  0
    0.7500   -3.8971    0.0000 C   0  0  0  0  0  0  0  0  0  0  0  0
    1.5000   -2.5981    0.0000 C   0  0  0  0  0  0  0  0  0  0  0  0
    0.7500   -1.2990    0.0000 C   0  0  0  0  0  0  0  0  0  0  0  0
    1.5000    0.0000    0.0000 C   0  0  0  0  0  0  0  0  0  0  0  0
    0.7500    1.2990    0.0000 C   0  0  0  0  0  0  0  0  0  0  0  0
   -0.7500    1.2990    0.0000 C   0  0  0  0  0  0  0  0  0  0  0  0
   -1.5000    0.0000    0.0000 C   0  0  0  0  0  0  0  0  0  0  0  0
   -0.7500   -1.2990    0.0000 C   0  0  0  0  0  0  0  0  0  0  0  0
   -1.5000   -2.5981    0.0000 C   0  0  0  0  0  0  0  0  0  0  0  0
   -3.0000   -2.5981    0.0000 C   0  0  0  0  0  0  0  0  0  0  0  0
   -3.7500   -1.2990    0.0000 C   0  0  0  0  0  0  0  0  0  0  0  0
   -5.2500   -1.2990    0.0000 C   0  0  0  0  0  0  0  0  0  0  0  0
   -6.0000   -2.5981    0.0000 C   0  0  0  0  0  0  0  0  0  0  0  0
   -7.5000   -2.5981    0.0000 Cl  0  0  0  0  0  0  0  0  0  0  0  0
   -5.2500   -3.8971    0.0000 C   0  0  0  0  0  0  0  0  0  0  0  0
   -3.7500   -3.8971    0.0000 C   0  0  0  0  0  0  0  0  0  0  0  0
   -0.7500   -3.8971    0.0000 C   0  0  0  0  0  0  0  0  0  0  0  0
    0.0000    2.2990    0.0000 Cl  0  0  0  0  0  0  0  0  0  0  0  0
  1  2  1  0
  2  3  1  0
  4  2  1  1
  4  5  1  0
  5  6  1  0
  6  7  2  0
  7  8  1  0
  8  9  2  0
  9 10  1  0
 10 11  2  0
 11 12  1  0
 12 13  1  6
 13 14  2  0
 14 15  1  0
 15 16  2  0
 16 17  1  0
 16 18  1  0
 18 19  2  0
 12 20  1  0
 20  4  1  0
 11  6  1  0
 19 13  1  0
M  END
>  <assay_chembl_id>  (446) 
CHEMBL3406943

>  <assay_description>  (446) 
Displacement of [3H]Mesulergine from human 5-HT2B receptor expressed in HEK293 cells by scintillation counting analysis

>  <parent_molecule_chembl_id>  (446) 
CHEMBL3547151

>  <canonical_smiles>  (446) 
CN(C)[C@@H]1Cc2ccccc2[C@@H](c2ccc(Cl)cc2)C1.Cl

>  <standard_type>  (446) 
Ki

>  <standard_relation>  (446) 
=

>  <standard_value>  (446) 
300.0

>  <standard_units>  (446) 
nM

>  <target_pref_name>  (446) 
Serotonin 2b (5-HT2b) receptor

>  <target_chembl_id>  (446) 
CHEMBL1833

>  <target_organism>  (446) 
Homo sapiens

>  <pchembl_median>  (446) 
5.8

$$$$
CHEMBL3402664
     RDKit          2D

 21 22  0  0  0  0  0  0  0  0999 V2000
    0.7500   -6.4952    0.0000 C   0  0  0  0  0  0  0  0  0  0  0  0
    1.5000   -5.1962    0.0000 N   0  0  0  0  0  0  0  0  0  0  0  0
    3.0000   -5.1962    0.0000 C   0  0  0  0  0  0  0  0  0  0  0  0
    0.7500   -3.8971    0.0000 C   0  0  0  0  0  0  0  0  0  0  0  0
    1.5000   -2.5981    0.0000 C   0  0  0  0  0  0  0  0  0  0  0  0
    0.7500   -1.2990    0.0000 C   0  0  0  0  0  0  0  0  0  0  0  0
    1.5000    0.0000    0.0000 C   0  0  0  0  0  0  0  0  0  0  0  0
    0.7500    1.2990    0.0000 C   0  0  0  0  0  0  0  0  0  0  0  0
   -0.7500    1.2990    0.0000 C   0  0  0  0  0  0  0  0  0  0  0  0
   -1.5000    0.0000    0.0000 C   0  0  0  0  0  0  0  0  0  0  0  0
   -0.7500   -1.2990    0.0000 C   0  0  0  0  0  0  0  0  0  0  0  0
   -1.5000   -2.5981    0.0000 C   0  0  0  0  0  0  0  0  0  0  0  0
   -3.0000   -2.5981    0.0000 C   0  0  0  0  0  0  0  0  0  0  0  0
   -3.7500   -1.2990    0.0000 C   0  0  0  0  0  0  0  0  0  0  0  0
   -5.2500   -1.2990    0.0000 C   0  0  0  0  0  0  0  0  0  0  0  0
   -6.0000   -2.5981    0.0000 C   0  0  0  0  0  0  0  0  0  0  0  0
   -7.5000   -2.5981    0.0000 Br  0  0  0  0  0  0  0  0  0  0  0  0
   -5.2500   -3.8971    0.0000 C   0  0  0  0  0  0  0  0  0  0  0  0
   -3.7500   -3.8971    0.0000 C   0  0  0  0  0  0  0  0  0  0  0  0
   -0.7500   -3.8971    0.0000 C   0  0  0  0  0  0  0  0  0  0  0  0
    0.0000    2.2990    0.0000 Cl  0  0  0  0  0  0  0  0  0  0  0  0
  1  2  1  0
  2  3  1  0
  4  2  1  6
  4  5  1  0
  5  6  1  0
  6  7  2  0
  7  8  1  0
  8  9  2  0
  9 10  1  0
 10 11  2  0
 11 12  1  0
 12 13  1  1
 13 14  2  0
 14 15  1  0
 15 16  2  0
 16 17  1  0
 16 18  1  0
 18 19  2  0
 12 20  1  0
 20  4  1  0
 11  6  1  0
 19 13  1  0
M  END
>  <assay_chembl_id>  (447) 
CHEMBL3406943

>  <assay_description>  (447) 
Displacement of [3H]Mesulergine from human 5-HT2B receptor expressed in HEK293 cells by scintillation counting analysis

>  <parent_molecule_chembl_id>  (447) 
CHEMBL3547150

>  <canonical_smiles>  (447) 
CN(C)[C@H]1Cc2ccccc2[C@H](c2ccc(Br)cc2)C1.Cl

>  <standard_type>  (447) 
Ki

>  <standard_relation>  (447) 
=

>  <standard_value>  (447) 
30.0

>  <standard_units>  (447) 
nM

>  <target_pref_name>  (447) 
Serotonin 2b (5-HT2b) receptor

>  <target_chembl_id>  (447) 
CHEMBL1833

>  <target_organism>  (447) 
Homo sapiens

>  <pchembl_median>  (447) 
5.43

$$$$
CHEMBL3402663
     RDKit          2D

 21 22  0  0  0  0  0  0  0  0999 V2000
    0.7500   -6.4952    0.0000 C   0  0  0  0  0  0  0  0  0  0  0  0
    1.5000   -5.1962    0.0000 N   0  0  0  0  0  0  0  0  0  0  0  0
    3.0000   -5.1962    0.0000 C   0  0  0  0  0  0  0  0  0  0  0  0
    0.7500   -3.8971    0.0000 C   0  0  0  0  0  0  0  0  0  0  0  0
    1.5000   -2.5981    0.0000 C   0  0  0  0  0  0  0  0  0  0  0  0
    0.7500   -1.2990    0.0000 C   0  0  0  0  0  0  0  0  0  0  0  0
    1.5000    0.0000    0.0000 C   0  0  0  0  0  0  0  0  0  0  0  0
    0.7500    1.2990    0.0000 C   0  0  0  0  0  0  0  0  0  0  0  0
   -0.7500    1.2990    0.0000 C   0  0  0  0  0  0  0  0  0  0  0  0
   -1.5000    0.0000    0.0000 C   0  0  0  0  0  0  0  0  0  0  0  0
   -0.7500   -1.2990    0.0000 C   0  0  0  0  0  0  0  0  0  0  0  0
   -1.5000   -2.5981    0.0000 C   0  0  0  0  0  0  0  0  0  0  0  0
   -3.0000   -2.5981    0.0000 C   0  0  0  0  0  0  0  0  0  0  0  0
   -3.7500   -1.2990    0.0000 C   0  0  0  0  0  0  0  0  0  0  0  0
   -5.2500   -1.2990    0.0000 C   0  0  0  0  0  0  0  0  0  0  0  0
   -6.0000   -2.5981    0.0000 C   0  0  0  0  0  0  0  0  0  0  0  0
   -7.5000   -2.5981    0.0000 Br  0  0  0  0  0  0  0  0  0  0  0  0
   -5.2500   -3.8971    0.0000 C   0  0  0  0  0  0  0  0  0  0  0  0
   -3.7500   -3.8971    0.0000 C   0  0  0  0  0  0  0  0  0  0  0  0
   -0.7500   -3.8971    0.0000 C   0  0  0  0  0  0  0  0  0  0  0  0
    0.0000    2.2990    0.0000 Cl  0  0  0  0  0  0  0  0  0  0  0  0
  1  2  1  0
  2  3  1  0
  4  2  1  1
  4  5  1  0
  5  6  1  0
  6  7  2  0
  7  8  1  0
  8  9  2  0
  9 10  1  0
 10 11  2  0
 11 12  1  0
 12 13  1  6
 13 14  2  0
 14 15  1  0
 15 16  2  0
 16 17  1  0
 16 18  1  0
 18 19  2  0
 12 20  1  0
 20  4  1  0
 11  6  1  0
 19 13  1  0
M  END
>  <assay_chembl_id>  (448) 
CHEMBL3406943

>  <assay_description>  (448) 
Displacement of [3H]Mesulergine from human 5-HT2B receptor expressed in HEK293 cells by scintillation counting analysis

>  <parent_molecule_chembl_id>  (448) 
CHEMBL3547043

>  <canonical_smiles>  (448) 
CN(C)[C@@H]1Cc2ccccc2[C@@H](c2ccc(Br)cc2)C1.Cl

>  <standard_type>  (448) 
Ki

>  <standard_relation>  (448) 
=

>  <standard_value>  (448) 
210.0

>  <standard_units>  (448) 
nM

>  <target_pref_name>  (448) 
Serotonin 2b (5-HT2b) receptor

>  <target_chembl_id>  (448) 
CHEMBL1833

>  <target_organism>  (448) 
Homo sapiens

>  <pchembl_median>  (448) 
6.7

$$$$
CHEMBL3402662
     RDKit          2D

 24 25  0  0  0  0  0  0  0  0999 V2000
    0.7500   -6.4952    0.0000 C   0  0  0  0  0  0  0  0  0  0  0  0
    1.5000   -5.1962    0.0000 N   0  0  0  0  0  0  0  0  0  0  0  0
    3.0000   -5.1962    0.0000 C   0  0  0  0  0  0  0  0  0  0  0  0
    0.7500   -3.8971    0.0000 C   0  0  0  0  0  0  0  0  0  0  0  0
    1.5000   -2.5981    0.0000 C   0  0  0  0  0  0  0  0  0  0  0  0
    0.7500   -1.2990    0.0000 C   0  0  0  0  0  0  0  0  0  0  0  0
    1.5000    0.0000    0.0000 C   0  0  0  0  0  0  0  0  0  0  0  0
    0.7500    1.2990    0.0000 C   0  0  0  0  0  0  0  0  0  0  0  0
   -0.7500    1.2990    0.0000 C   0  0  0  0  0  0  0  0  0  0  0  0
   -1.5000    0.0000    0.0000 C   0  0  0  0  0  0  0  0  0  0  0  0
   -0.7500   -1.2990    0.0000 C   0  0  0  0  0  0  0  0  0  0  0  0
   -1.5000   -2.5981    0.0000 C   0  0  0  0  0  0  0  0  0  0  0  0
   -3.0000   -2.5981    0.0000 C   0  0  0  0  0  0  0  0  0  0  0  0
   -3.7500   -1.2990    0.0000 C   0  0  0  0  0  0  0  0  0  0  0  0
   -5.2500   -1.2990    0.0000 C   0  0  0  0  0  0  0  0  0  0  0  0
   -6.0000   -2.5981    0.0000 C   0  0  0  0  0  0  0  0  0  0  0  0
   -7.5000   -2.5981    0.0000 C   0  0  0  0  0  0  0  0  0  0  0  0
   -9.0000   -2.5981    0.0000 F   0  0  0  0  0  0  0  0  0  0  0  0
   -7.5000   -1.0981    0.0000 F   0  0  0  0  0  0  0  0  0  0  0  0
   -7.5000   -4.0981    0.0000 F   0  0  0  0  0  0  0  0  0  0  0  0
   -5.2500   -3.8971    0.0000 C   0  0  0  0  0  0  0  0  0  0  0  0
   -3.7500   -3.8971    0.0000 C   0  0  0  0  0  0  0  0  0  0  0  0
   -0.7500   -3.8971    0.0000 C   0  0  0  0  0  0  0  0  0  0  0  0
    0.0000    2.2990    0.0000 Cl  0  0  0  0  0  0  0  0  0  0  0  0
  1  2  1  0
  2  3  1  0
  4  2  1  6
  4  5  1  0
  5  6  1  0
  6  7  2  0
  7  8  1  0
  8  9  2  0
  9 10  1  0
 10 11  2  0
 11 12  1  0
 12 13  1  1
 13 14  2  0
 14 15  1  0
 15 16  2  0
 16 17  1  0
 17 18  1  0
 17 19  1  0
 17 20  1  0
 16 21  1  0
 21 22  2  0
 12 23  1  0
 23  4  1  0
 11  6  1  0
 22 13  1  0
M  END
>  <assay_chembl_id>  (449) 
CHEMBL3406943

>  <assay_description>  (449) 
Displacement of [3H]Mesulergine from human 5-HT2B receptor expressed in HEK293 cells by scintillation counting analysis

>  <parent_molecule_chembl_id>  (449) 
CHEMBL3547029

>  <canonical_smiles>  (449) 
CN(C)[C@H]1Cc2ccccc2[C@H](c2ccc(C(F)(F)F)cc2)C1.Cl

>  <standard_type>  (449) 
Ki

>  <standard_relation>  (449) 
=

>  <standard_value>  (449) 
250.0

>  <standard_units>  (449) 
nM

>  <target_pref_name>  (449) 
Serotonin 2b (5-HT2b) receptor

>  <target_chembl_id>  (449) 
CHEMBL1833

>  <target_organism>  (449) 
Homo sapiens

>  <pchembl_median>  (449) 
6.83

$$$$
CHEMBL3402661
     RDKit          2D

 24 25  0  0  0  0  0  0  0  0999 V2000
    0.7500   -6.4952    0.0000 C   0  0  0  0  0  0  0  0  0  0  0  0
    1.5000   -5.1962    0.0000 N   0  0  0  0  0  0  0  0  0  0  0  0
    3.0000   -5.1962    0.0000 C   0  0  0  0  0  0  0  0  0  0  0  0
    0.7500   -3.8971    0.0000 C   0  0  0  0  0  0  0  0  0  0  0  0
    1.5000   -2.5981    0.0000 C   0  0  0  0  0  0  0  0  0  0  0  0
    0.7500   -1.2990    0.0000 C   0  0  0  0  0  0  0  0  0  0  0  0
    1.5000    0.0000    0.0000 C   0  0  0  0  0  0  0  0  0  0  0  0
    0.7500    1.2990    0.0000 C   0  0  0  0  0  0  0  0  0  0  0  0
   -0.7500    1.2990    0.0000 C   0  0  0  0  0  0  0  0  0  0  0  0
   -1.5000    0.0000    0.0000 C   0  0  0  0  0  0  0  0  0  0  0  0
   -0.7500   -1.2990    0.0000 C   0  0  0  0  0  0  0  0  0  0  0  0
   -1.5000   -2.5981    0.0000 C   0  0  0  0  0  0  0  0  0  0  0  0
   -3.0000   -2.5981    0.0000 C   0  0  0  0  0  0  0  0  0  0  0  0
   -3.7500   -1.2990    0.0000 C   0  0  0  0  0  0  0  0  0  0  0  0
   -5.2500   -1.2990    0.0000 C   0  0  0  0  0  0  0  0  0  0  0  0
   -6.0000   -2.5981    0.0000 C   0  0  0  0  0  0  0  0  0  0  0  0
   -7.5000   -2.5981    0.0000 C   0  0  0  0  0  0  0  0  0  0  0  0
   -9.0000   -2.5981    0.0000 F   0  0  0  0  0  0  0  0  0  0  0  0
   -7.5000   -1.0981    0.0000 F   0  0  0  0  0  0  0  0  0  0  0  0
   -7.5000   -4.0981    0.0000 F   0  0  0  0  0  0  0  0  0  0  0  0
   -5.2500   -3.8971    0.0000 C   0  0  0  0  0  0  0  0  0  0  0  0
   -3.7500   -3.8971    0.0000 C   0  0  0  0  0  0  0  0  0  0  0  0
   -0.7500   -3.8971    0.0000 C   0  0  0  0  0  0  0  0  0  0  0  0
    0.0000    2.2990    0.0000 Cl  0  0  0  0  0  0  0  0  0  0  0  0
  1  2  1  0
  2  3  1  0
  4  2  1  1
  4  5  1  0
  5  6  1  0
  6  7  2  0
  7  8  1  0
  8  9  2  0
  9 10  1  0
 10 11  2  0
 11 12  1  0
 12 13  1  6
 13 14  2  0
 14 15  1  0
 15 16  2  0
 16 17  1  0
 17 18  1  0
 17 19  1  0
 17 20  1  0
 16 21  1  0
 21 22  2  0
 12 23  1  0
 23  4  1  0
 11  6  1  0
 22 13  1  0
M  END
>  <assay_chembl_id>  (450) 
CHEMBL3406943

>  <assay_description>  (450) 
Displacement of [3H]Mesulergine from human 5-HT2B receptor expressed in HEK293 cells by scintillation counting analysis

>  <parent_molecule_chembl_id>  (450) 
CHEMBL3547028

>  <canonical_smiles>  (450) 
CN(C)[C@@H]1Cc2ccccc2[C@@H](c2ccc(C(F)(F)F)cc2)C1.Cl

>  <standard_type>  (450) 
Ki

>  <standard_relation>  (450) 
=

>  <standard_value>  (450) 
540.0

>  <standard_units>  (450) 
nM

>  <target_pref_name>  (450) 
Serotonin 2b (5-HT2b) receptor

>  <target_chembl_id>  (450) 
CHEMBL1833

>  <target_organism>  (450) 
Homo sapiens

>  <pchembl_median>  (450) 
8.2

$$$$
CHEMBL3402660
     RDKit          2D

 23 24  0  0  0  0  0  0  0  0999 V2000
    0.7500   -6.4952    0.0000 C   0  0  0  0  0  0  0  0  0  0  0  0
    1.5000   -5.1962    0.0000 N   0  0  0  0  0  0  0  0  0  0  0  0
    3.0000   -5.1962    0.0000 C   0  0  0  0  0  0  0  0  0  0  0  0
    0.7500   -3.8971    0.0000 C   0  0  0  0  0  0  0  0  0  0  0  0
    1.5000   -2.5981    0.0000 C   0  0  0  0  0  0  0  0  0  0  0  0
    0.7500   -1.2990    0.0000 C   0  0  0  0  0  0  0  0  0  0  0  0
    1.5000    0.0000    0.0000 C   0  0  0  0  0  0  0  0  0  0  0  0
    0.7500    1.2990    0.0000 C   0  0  0  0  0  0  0  0  0  0  0  0
   -0.7500    1.2990    0.0000 C   0  0  0  0  0  0  0  0  0  0  0  0
   -1.5000    0.0000    0.0000 C   0  0  0  0  0  0  0  0  0  0  0  0
   -0.7500   -1.2990    0.0000 C   0  0  0  0  0  0  0  0  0  0  0  0
   -1.5000   -2.5981    0.0000 C   0  0  0  0  0  0  0  0  0  0  0  0
   -3.0000   -2.5981    0.0000 C   0  0  0  0  0  0  0  0  0  0  0  0
   -3.7500   -1.2990    0.0000 C   0  0  0  0  0  0  0  0  0  0  0  0
   -5.2500   -1.2990    0.0000 C   0  0  0  0  0  0  0  0  0  0  0  0
   -6.0000   -2.5981    0.0000 C   0  0  0  0  0  0  0  0  0  0  0  0
   -7.5000   -2.5981    0.0000 N   0  0  0  0  0  4  0  0  0  0  0  0
   -8.2500   -3.8971    0.0000 O   0  0  0  0  0  0  0  0  0  0  0  0
   -8.2500   -1.2990    0.0000 O   0  0  0  0  0  1  0  0  0  0  0  0
   -5.2500   -3.8971    0.0000 C   0  0  0  0  0  0  0  0  0  0  0  0
   -3.7500   -3.8971    0.0000 C   0  0  0  0  0  0  0  0  0  0  0  0
   -0.7500   -3.8971    0.0000 C   0  0  0  0  0  0  0  0  0  0  0  0
    0.0000    2.2990    0.0000 Cl  0  0  0  0  0  0  0  0  0  0  0  0
  1  2  1  0
  2  3  1  0
  4  2  1  6
  4  5  1  0
  5  6  1  0
  6  7  2  0
  7  8  1  0
  8  9  2  0
  9 10  1  0
 10 11  2  0
 11 12  1  0
 12 13  1  1
 13 14  2  0
 14 15  1  0
 15 16  2  0
 16 17  1  0
 17 18  2  0
 17 19  1  0
 16 20  1  0
 20 21  2  0
 12 22  1  0
 22  4  1  0
 11  6  1  0
 21 13  1  0
M  CHG  2  17   1  19  -1
M  END
>  <assay_chembl_id>  (451) 
CHEMBL3406943

>  <assay_description>  (451) 
Displacement of [3H]Mesulergine from human 5-HT2B receptor expressed in HEK293 cells by scintillation counting analysis

>  <parent_molecule_chembl_id>  (451) 
CHEMBL3547013

>  <canonical_smiles>  (451) 
CN(C)[C@H]1Cc2ccccc2[C@H](c2ccc([N+](=O)[O-])cc2)C1.Cl

>  <standard_type>  (451) 
Ki

>  <standard_relation>  (451) 
=

>  <standard_value>  (451) 
4100.0

>  <standard_units>  (451) 
nM

>  <target_pref_name>  (451) 
Serotonin 2b (5-HT2b) receptor

>  <target_chembl_id>  (451) 
CHEMBL1833

>  <target_organism>  (451) 
Homo sapiens

>  <pchembl_median>  (451) 
7.895

$$$$
CHEMBL3402659
     RDKit          2D

 21 22  0  0  0  0  0  0  0  0999 V2000
    0.7500   -6.4952    0.0000 C   0  0  0  0  0  0  0  0  0  0  0  0
    1.5000   -5.1962    0.0000 N   0  0  0  0  0  0  0  0  0  0  0  0
    3.0000   -5.1962    0.0000 C   0  0  0  0  0  0  0  0  0  0  0  0
    0.7500   -3.8971    0.0000 C   0  0  0  0  0  0  0  0  0  0  0  0
    1.5000   -2.5981    0.0000 C   0  0  0  0  0  0  0  0  0  0  0  0
    0.7500   -1.2990    0.0000 C   0  0  0  0  0  0  0  0  0  0  0  0
    1.5000    0.0000    0.0000 C   0  0  0  0  0  0  0  0  0  0  0  0
    0.7500    1.2990    0.0000 C   0  0  0  0  0  0  0  0  0  0  0  0
   -0.7500    1.2990    0.0000 C   0  0  0  0  0  0  0  0  0  0  0  0
   -1.5000    0.0000    0.0000 C   0  0  0  0  0  0  0  0  0  0  0  0
   -0.7500   -1.2990    0.0000 C   0  0  0  0  0  0  0  0  0  0  0  0
   -1.5000   -2.5981    0.0000 C   0  0  0  0  0  0  0  0  0  0  0  0
   -3.0000   -2.5981    0.0000 C   0  0  0  0  0  0  0  0  0  0  0  0
   -3.7500   -1.2990    0.0000 C   0  0  0  0  0  0  0  0  0  0  0  0
   -5.2500   -1.2990    0.0000 C   0  0  0  0  0  0  0  0  0  0  0  0
   -6.0000   -2.5981    0.0000 C   0  0  0  0  0  0  0  0  0  0  0  0
   -5.2500   -3.8971    0.0000 C   0  0  0  0  0  0  0  0  0  0  0  0
   -3.7500   -3.8971    0.0000 C   0  0  0  0  0  0  0  0  0  0  0  0
   -3.0000   -5.1962    0.0000 Br  0  0  0  0  0  0  0  0  0  0  0  0
   -0.7500   -3.8971    0.0000 C   0  0  0  0  0  0  0  0  0  0  0  0
    0.0000    2.2990    0.0000 Cl  0  0  0  0  0  0  0  0  0  0  0  0
  1  2  1  0
  2  3  1  0
  4  2  1  6
  4  5  1  0
  5  6  1  0
  6  7  2  0
  7  8  1  0
  8  9  2  0
  9 10  1  0
 10 11  2  0
 11 12  1  0
 12 13  1  1
 13 14  2  0
 14 15  1  0
 15 16  2  0
 16 17  1  0
 17 18  2  0
 18 19  1  0
 12 20  1  0
 20  4  1  0
 11  6  1  0
 18 13  1  0
M  END
>  <assay_chembl_id>  (452) 
CHEMBL3406943

>  <assay_description>  (452) 
Displacement of [3H]Mesulergine from human 5-HT2B receptor expressed in HEK293 cells by scintillation counting analysis

>  <parent_molecule_chembl_id>  (452) 
CHEMBL3547012

>  <canonical_smiles>  (452) 
CN(C)[C@H]1Cc2ccccc2[C@H](c2ccccc2Br)C1.Cl

>  <standard_type>  (452) 
Ki

>  <standard_relation>  (452) 
=

>  <standard_value>  (452) 
4100.0

>  <standard_units>  (452) 
nM

>  <target_pref_name>  (452) 
Serotonin 2b (5-HT2b) receptor

>  <target_chembl_id>  (452) 
CHEMBL1833

>  <target_organism>  (452) 
Homo sapiens

>  <pchembl_median>  (452) 
6.32

$$$$
CHEMBL3402658
     RDKit          2D

 21 22  0  0  0  0  0  0  0  0999 V2000
    0.7500   -6.4952    0.0000 C   0  0  0  0  0  0  0  0  0  0  0  0
    1.5000   -5.1962    0.0000 N   0  0  0  0  0  0  0  0  0  0  0  0
    3.0000   -5.1962    0.0000 C   0  0  0  0  0  0  0  0  0  0  0  0
    0.7500   -3.8971    0.0000 C   0  0  0  0  0  0  0  0  0  0  0  0
    1.5000   -2.5981    0.0000 C   0  0  0  0  0  0  0  0  0  0  0  0
    0.7500   -1.2990    0.0000 C   0  0  0  0  0  0  0  0  0  0  0  0
    1.5000    0.0000    0.0000 C   0  0  0  0  0  0  0  0  0  0  0  0
    0.7500    1.2990    0.0000 C   0  0  0  0  0  0  0  0  0  0  0  0
   -0.7500    1.2990    0.0000 C   0  0  0  0  0  0  0  0  0  0  0  0
   -1.5000    0.0000    0.0000 C   0  0  0  0  0  0  0  0  0  0  0  0
   -0.7500   -1.2990    0.0000 C   0  0  0  0  0  0  0  0  0  0  0  0
   -1.5000   -2.5981    0.0000 C   0  0  0  0  0  0  0  0  0  0  0  0
   -3.0000   -2.5981    0.0000 C   0  0  0  0  0  0  0  0  0  0  0  0
   -3.7500   -1.2990    0.0000 C   0  0  0  0  0  0  0  0  0  0  0  0
   -5.2500   -1.2990    0.0000 C   0  0  0  0  0  0  0  0  0  0  0  0
   -6.0000   -2.5981    0.0000 C   0  0  0  0  0  0  0  0  0  0  0  0
   -5.2500   -3.8971    0.0000 C   0  0  0  0  0  0  0  0  0  0  0  0
   -3.7500   -3.8971    0.0000 C   0  0  0  0  0  0  0  0  0  0  0  0
   -3.0000   -5.1962    0.0000 Br  0  0  0  0  0  0  0  0  0  0  0  0
   -0.7500   -3.8971    0.0000 C   0  0  0  0  0  0  0  0  0  0  0  0
    0.0000    2.2990    0.0000 Cl  0  0  0  0  0  0  0  0  0  0  0  0
  1  2  1  0
  2  3  1  0
  4  2  1  1
  4  5  1  0
  5  6  1  0
  6  7  2  0
  7  8  1  0
  8  9  2  0
  9 10  1  0
 10 11  2  0
 11 12  1  0
 12 13  1  6
 13 14  2  0
 14 15  1  0
 15 16  2  0
 16 17  1  0
 17 18  2  0
 18 19  1  0
 12 20  1  0
 20  4  1  0
 11  6  1  0
 18 13  1  0
M  END
>  <assay_chembl_id>  (453) 
CHEMBL3406943

>  <assay_description>  (453) 
Displacement of [3H]Mesulergine from human 5-HT2B receptor expressed in HEK293 cells by scintillation counting analysis

>  <parent_molecule_chembl_id>  (453) 
CHEMBL3547011

>  <canonical_smiles>  (453) 
CN(C)[C@@H]1Cc2ccccc2[C@@H](c2ccccc2Br)C1.Cl

>  <standard_type>  (453) 
Ki

>  <standard_relation>  (453) 
=

>  <standard_value>  (453) 
650.0

>  <standard_units>  (453) 
nM

>  <target_pref_name>  (453) 
Serotonin 2b (5-HT2b) receptor

>  <target_chembl_id>  (453) 
CHEMBL1833

>  <target_organism>  (453) 
Homo sapiens

>  <pchembl_median>  (453) 
6.79

$$$$
CHEMBL3402657
     RDKit          2D

 20 21  0  0  0  0  0  0  0  0999 V2000
    0.7500   -6.4952    0.0000 C   0  0  0  0  0  0  0  0  0  0  0  0
    1.5000   -5.1962    0.0000 N   0  0  0  0  0  0  0  0  0  0  0  0
    3.0000   -5.1962    0.0000 C   0  0  0  0  0  0  0  0  0  0  0  0
    0.7500   -3.8971    0.0000 C   0  0  0  0  0  0  0  0  0  0  0  0
    1.5000   -2.5981    0.0000 C   0  0  0  0  0  0  0  0  0  0  0  0
    0.7500   -1.2990    0.0000 C   0  0  0  0  0  0  0  0  0  0  0  0
    1.5000    0.0000    0.0000 C   0  0  0  0  0  0  0  0  0  0  0  0
    0.7500    1.2990    0.0000 C   0  0  0  0  0  0  0  0  0  0  0  0
   -0.7500    1.2990    0.0000 C   0  0  0  0  0  0  0  0  0  0  0  0
   -1.5000    0.0000    0.0000 C   0  0  0  0  0  0  0  0  0  0  0  0
   -0.7500   -1.2990    0.0000 C   0  0  0  0  0  0  0  0  0  0  0  0
   -1.5000   -2.5981    0.0000 C   0  0  0  0  0  0  0  0  0  0  0  0
   -3.0000   -2.5981    0.0000 C   0  0  0  0  0  0  0  0  0  0  0  0
   -3.7500   -1.2990    0.0000 C   0  0  0  0  0  0  0  0  0  0  0  0
   -5.2500   -1.2990    0.0000 C   0  0  0  0  0  0  0  0  0  0  0  0
   -6.0000   -2.5981    0.0000 C   0  0  0  0  0  0  0  0  0  0  0  0
   -5.2500   -3.8971    0.0000 C   0  0  0  0  0  0  0  0  0  0  0  0
   -3.7500   -3.8971    0.0000 C   0  0  0  0  0  0  0  0  0  0  0  0
   -0.7500   -3.8971    0.0000 C   0  0  0  0  0  0  0  0  0  0  0  0
    0.0000    2.2990    0.0000 Cl  0  0  0  0  0  0  0  0  0  0  0  0
  1  2  1  0
  2  3  1  0
  4  2  1  6
  4  5  1  0
  5  6  1  0
  6  7  2  0
  7  8  1  0
  8  9  2  0
  9 10  1  0
 10 11  2  0
 11 12  1  0
 12 13  1  1
 13 14  1  0
 14 15  1  0
 15 16  1  0
 16 17  1  0
 17 18  1  0
 12 19  1  0
 19  4  1  0
 11  6  1  0
 18 13  1  0
M  END
>  <assay_chembl_id>  (454) 
CHEMBL3406943

>  <assay_description>  (454) 
Displacement of [3H]Mesulergine from human 5-HT2B receptor expressed in HEK293 cells by scintillation counting analysis

>  <parent_molecule_chembl_id>  (454) 
CHEMBL3547010

>  <canonical_smiles>  (454) 
CN(C)[C@H]1Cc2ccccc2[C@H](C2CCCCC2)C1.Cl

>  <standard_type>  (454) 
Ki

>  <standard_relation>  (454) 
=

>  <standard_value>  (454) 
170.0

>  <standard_units>  (454) 
nM

>  <target_pref_name>  (454) 
Serotonin 2b (5-HT2b) receptor

>  <target_chembl_id>  (454) 
CHEMBL1833

>  <target_organism>  (454) 
Homo sapiens

>  <pchembl_median>  (454) 
6.28

$$$$
CHEMBL3402656
     RDKit          2D

 20 21  0  0  0  0  0  0  0  0999 V2000
    0.7500   -6.4952    0.0000 C   0  0  0  0  0  0  0  0  0  0  0  0
    1.5000   -5.1962    0.0000 N   0  0  0  0  0  0  0  0  0  0  0  0
    3.0000   -5.1962    0.0000 C   0  0  0  0  0  0  0  0  0  0  0  0
    0.7500   -3.8971    0.0000 C   0  0  0  0  0  0  0  0  0  0  0  0
    1.5000   -2.5981    0.0000 C   0  0  0  0  0  0  0  0  0  0  0  0
    0.7500   -1.2990    0.0000 C   0  0  0  0  0  0  0  0  0  0  0  0
    1.5000    0.0000    0.0000 C   0  0  0  0  0  0  0  0  0  0  0  0
    0.7500    1.2990    0.0000 C   0  0  0  0  0  0  0  0  0  0  0  0
   -0.7500    1.2990    0.0000 C   0  0  0  0  0  0  0  0  0  0  0  0
   -1.5000    0.0000    0.0000 C   0  0  0  0  0  0  0  0  0  0  0  0
   -0.7500   -1.2990    0.0000 C   0  0  0  0  0  0  0  0  0  0  0  0
   -1.5000   -2.5981    0.0000 C   0  0  0  0  0  0  0  0  0  0  0  0
   -3.0000   -2.5981    0.0000 C   0  0  0  0  0  0  0  0  0  0  0  0
   -3.7500   -1.2990    0.0000 C   0  0  0  0  0  0  0  0  0  0  0  0
   -5.2500   -1.2990    0.0000 C   0  0  0  0  0  0  0  0  0  0  0  0
   -6.0000   -2.5981    0.0000 C   0  0  0  0  0  0  0  0  0  0  0  0
   -5.2500   -3.8971    0.0000 C   0  0  0  0  0  0  0  0  0  0  0  0
   -3.7500   -3.8971    0.0000 C   0  0  0  0  0  0  0  0  0  0  0  0
   -0.7500   -3.8971    0.0000 C   0  0  0  0  0  0  0  0  0  0  0  0
    0.0000    2.2990    0.0000 Cl  0  0  0  0  0  0  0  0  0  0  0  0
  1  2  1  0
  2  3  1  0
  4  2  1  1
  4  5  1  0
  5  6  1  0
  6  7  2  0
  7  8  1  0
  8  9  2  0
  9 10  1  0
 10 11  2  0
 11 12  1  0
 12 13  1  6
 13 14  1  0
 14 15  1  0
 15 16  1  0
 16 17  1  0
 17 18  1  0
 12 19  1  0
 19  4  1  0
 11  6  1  0
 18 13  1  0
M  END
>  <assay_chembl_id>  (455) 
CHEMBL3406943

>  <assay_description>  (455) 
Displacement of [3H]Mesulergine from human 5-HT2B receptor expressed in HEK293 cells by scintillation counting analysis

>  <parent_molecule_chembl_id>  (455) 
CHEMBL3547009

>  <canonical_smiles>  (455) 
CN(C)[C@@H]1Cc2ccccc2[C@@H](C2CCCCC2)C1.Cl

>  <standard_type>  (455) 
Ki

>  <standard_relation>  (455) 
=

>  <standard_value>  (455) 
20.0

>  <standard_units>  (455) 
nM

>  <target_pref_name>  (455) 
Serotonin 2b (5-HT2b) receptor

>  <target_chembl_id>  (455) 
CHEMBL1833

>  <target_organism>  (455) 
Homo sapiens

>  <pchembl_median>  (455) 
7.2

$$$$
CHEMBL3402655
     RDKit          2D

 22 23  0  0  0  0  0  0  0  0999 V2000
    0.7500   -6.4952    0.0000 C   0  0  0  0  0  0  0  0  0  0  0  0
    1.5000   -5.1962    0.0000 N   0  0  0  0  0  0  0  0  0  0  0  0
    3.0000   -5.1962    0.0000 C   0  0  0  0  0  0  0  0  0  0  0  0
    0.7500   -3.8971    0.0000 C   0  0  0  0  0  0  0  0  0  0  0  0
    1.5000   -2.5981    0.0000 C   0  0  0  0  0  0  0  0  0  0  0  0
    0.7500   -1.2990    0.0000 C   0  0  0  0  0  0  0  0  0  0  0  0
    1.5000    0.0000    0.0000 C   0  0  0  0  0  0  0  0  0  0  0  0
    0.7500    1.2990    0.0000 C   0  0  0  0  0  0  0  0  0  0  0  0
   -0.7500    1.2990    0.0000 C   0  0  0  0  0  0  0  0  0  0  0  0
   -1.5000    0.0000    0.0000 C   0  0  0  0  0  0  0  0  0  0  0  0
   -0.7500   -1.2990    0.0000 C   0  0  0  0  0  0  0  0  0  0  0  0
   -1.5000   -2.5981    0.0000 C   0  0  0  0  0  0  0  0  0  0  0  0
   -3.0000   -2.5981    0.0000 C   0  0  0  0  0  0  0  0  0  0  0  0
   -3.5740   -1.2123    0.0000 C   0  0  0  0  0  0  0  0  0  0  0  0
   -4.9598   -0.6382    0.0000 C   0  0  0  0  0  0  0  0  0  0  0  0
   -6.3457   -1.2123    0.0000 C   0  0  0  0  0  0  0  0  0  0  0  0
   -6.9197   -2.5981    0.0000 C   0  0  0  0  0  0  0  0  0  0  0  0
   -6.3457   -3.9839    0.0000 C   0  0  0  0  0  0  0  0  0  0  0  0
   -4.9598   -4.5579    0.0000 C   0  0  0  0  0  0  0  0  0  0  0  0
   -3.5740   -3.9839    0.0000 C   0  0  0  0  0  0  0  0  0  0  0  0
   -0.7500   -3.8971    0.0000 C   0  0  0  0  0  0  0  0  0  0  0  0
    0.0000    2.2990    0.0000 Cl  0  0  0  0  0  0  0  0  0  0  0  0
  1  2  1  0
  2  3  1  0
  4  2  1  6
  4  5  1  0
  5  6  1  0
  6  7  2  0
  7  8  1  0
  8  9  2  0
  9 10  1  0
 10 11  2  0
 11 12  1  0
 12 13  1  1
 13 14  1  0
 14 15  1  0
 15 16  1  0
 16 17  1  0
 17 18  1  0
 18 19  1  0
 19 20  1  0
 12 21  1  0
 21  4  1  0
 11  6  1  0
 20 13  1  0
M  END
>  <assay_chembl_id>  (456) 
CHEMBL3406943

>  <assay_description>  (456) 
Displacement of [3H]Mesulergine from human 5-HT2B receptor expressed in HEK293 cells by scintillation counting analysis

>  <parent_molecule_chembl_id>  (456) 
CHEMBL3547008

>  <canonical_smiles>  (456) 
CN(C)[C@H]1Cc2ccccc2[C@H](C2CCCCCCC2)C1.Cl

>  <standard_type>  (456) 
Ki

>  <standard_relation>  (456) 
=

>  <standard_value>  (456) 
40.0

>  <standard_units>  (456) 
nM

>  <target_pref_name>  (456) 
Serotonin 2b (5-HT2b) receptor

>  <target_chembl_id>  (456) 
CHEMBL1833

>  <target_organism>  (456) 
Homo sapiens

>  <pchembl_median>  (456) 
6.48

$$$$
CHEMBL3402680
     RDKit          2D

 22 23  0  0  0  0  0  0  0  0999 V2000
    0.7500   -6.4952    0.0000 C   0  0  0  0  0  0  0  0  0  0  0  0
    1.5000   -5.1962    0.0000 N   0  0  0  0  0  0  0  0  0  0  0  0
    3.0000   -5.1962    0.0000 C   0  0  0  0  0  0  0  0  0  0  0  0
    0.7500   -3.8971    0.0000 C   0  0  0  0  0  0  0  0  0  0  0  0
    1.5000   -2.5981    0.0000 C   0  0  0  0  0  0  0  0  0  0  0  0
    0.7500   -1.2990    0.0000 C   0  0  0  0  0  0  0  0  0  0  0  0
    1.5000    0.0000    0.0000 C   0  0  0  0  0  0  0  0  0  0  0  0
    0.7500    1.2990    0.0000 C   0  0  0  0  0  0  0  0  0  0  0  0
   -0.7500    1.2990    0.0000 C   0  0  0  0  0  0  0  0  0  0  0  0
   -1.5000    0.0000    0.0000 C   0  0  0  0  0  0  0  0  0  0  0  0
   -0.7500   -1.2990    0.0000 C   0  0  0  0  0  0  0  0  0  0  0  0
   -1.5000   -2.5981    0.0000 C   0  0  0  0  0  0  0  0  0  0  0  0
   -3.0000   -2.5981    0.0000 C   0  0  0  0  0  0  0  0  0  0  0  0
   -3.5740   -1.2123    0.0000 C   0  0  0  0  0  0  0  0  0  0  0  0
   -4.9598   -0.6382    0.0000 C   0  0  0  0  0  0  0  0  0  0  0  0
   -6.3457   -1.2123    0.0000 C   0  0  0  0  0  0  0  0  0  0  0  0
   -6.9197   -2.5981    0.0000 C   0  0  0  0  0  0  0  0  0  0  0  0
   -6.3457   -3.9839    0.0000 C   0  0  0  0  0  0  0  0  0  0  0  0
   -4.9598   -4.5579    0.0000 C   0  0  0  0  0  0  0  0  0  0  0  0
   -3.5740   -3.9839    0.0000 C   0  0  0  0  0  0  0  0  0  0  0  0
   -0.7500   -3.8971    0.0000 C   0  0  0  0  0  0  0  0  0  0  0  0
    0.0000    2.2990    0.0000 Cl  0  0  0  0  0  0  0  0  0  0  0  0
  1  2  1  0
  2  3  1  0
  4  2  1  1
  4  5  1  0
  5  6  1  0
  6  7  2  0
  7  8  1  0
  8  9  2  0
  9 10  1  0
 10 11  2  0
 11 12  1  0
 12 13  1  6
 13 14  1  0
 14 15  1  0
 15 16  1  0
 16 17  1  0
 17 18  1  0
 18 19  1  0
 19 20  1  0
 12 21  1  0
 21  4  1  0
 11  6  1  0
 20 13  1  0
M  END
>  <assay_chembl_id>  (457) 
CHEMBL3406943

>  <assay_description>  (457) 
Displacement of [3H]Mesulergine from human 5-HT2B receptor expressed in HEK293 cells by scintillation counting analysis

>  <parent_molecule_chembl_id>  (457) 
CHEMBL3547158

>  <canonical_smiles>  (457) 
CN(C)[C@@H]1Cc2ccccc2[C@@H](C2CCCCCCC2)C1.Cl

>  <standard_type>  (457) 
Ki

>  <standard_relation>  (457) 
=

>  <standard_value>  (457) 
10.0

>  <standard_units>  (457) 
nM

>  <target_pref_name>  (457) 
Serotonin 2b (5-HT2b) receptor

>  <target_chembl_id>  (457) 
CHEMBL1833

>  <target_organism>  (457) 
Homo sapiens

>  <pchembl_median>  (457) 
5.67

$$$$
CHEMBL3402681
     RDKit          2D

 26 28  0  0  0  0  0  0  0  0999 V2000
    0.7500   -6.4952    0.0000 C   0  0  0  0  0  0  0  0  0  0  0  0
    1.5000   -5.1962    0.0000 N   0  0  0  0  0  0  0  0  0  0  0  0
    3.0000   -5.1962    0.0000 C   0  0  0  0  0  0  0  0  0  0  0  0
    0.7500   -3.8971    0.0000 C   0  0  0  0  0  0  0  0  0  0  0  0
    1.5000   -2.5981    0.0000 C   0  0  0  0  0  0  0  0  0  0  0  0
    0.7500   -1.2990    0.0000 C   0  0  0  0  0  0  0  0  0  0  0  0
    1.5000    0.0000    0.0000 C   0  0  0  0  0  0  0  0  0  0  0  0
    0.7500    1.2990    0.0000 C   0  0  0  0  0  0  0  0  0  0  0  0
   -0.7500    1.2990    0.0000 C   0  0  0  0  0  0  0  0  0  0  0  0
   -1.5000    0.0000    0.0000 C   0  0  0  0  0  0  0  0  0  0  0  0
   -0.7500   -1.2990    0.0000 C   0  0  0  0  0  0  0  0  0  0  0  0
   -1.5000   -2.5981    0.0000 C   0  0  0  0  0  0  0  0  0  0  0  0
   -3.0000   -2.5981    0.0000 C   0  0  0  0  0  0  0  0  0  0  0  0
   -3.7500   -1.2990    0.0000 C   0  0  0  0  0  0  0  0  0  0  0  0
   -5.2500   -1.2990    0.0000 C   0  0  0  0  0  0  0  0  0  0  0  0
   -6.0000   -2.5981    0.0000 C   0  0  0  0  0  0  0  0  0  0  0  0
   -5.2500   -3.8971    0.0000 C   0  0  0  0  0  0  0  0  0  0  0  0
   -6.0000   -5.1962    0.0000 C   0  0  0  0  0  0  0  0  0  0  0  0
   -7.5000   -5.1962    0.0000 C   0  0  0  0  0  0  0  0  0  0  0  0
   -8.2500   -6.4952    0.0000 C   0  0  0  0  0  0  0  0  0  0  0  0
   -7.5000   -7.7942    0.0000 C   0  0  0  0  0  0  0  0  0  0  0  0
   -6.0000   -7.7942    0.0000 C   0  0  0  0  0  0  0  0  0  0  0  0
   -5.2500   -6.4952    0.0000 C   0  0  0  0  0  0  0  0  0  0  0  0
   -3.7500   -3.8971    0.0000 C   0  0  0  0  0  0  0  0  0  0  0  0
   -0.7500   -3.8971    0.0000 C   0  0  0  0  0  0  0  0  0  0  0  0
    0.0000    2.2990    0.0000 Cl  0  0  0  0  0  0  0  0  0  0  0  0
  1  2  1  0
  2  3  1  0
  4  2  1  6
  4  5  1  0
  5  6  1  0
  6  7  2  0
  7  8  1  0
  8  9  2  0
  9 10  1  0
 10 11  2  0
 11 12  1  0
 12 13  1  1
 13 14  2  0
 14 15  1  0
 15 16  2  0
 16 17  1  0
 17 18  1  0
 18 19  2  0
 19 20  1  0
 20 21  2  0
 21 22  1  0
 22 23  2  0
 17 24  2  0
 12 25  1  0
 25  4  1  0
 11  6  1  0
 24 13  1  0
 23 18  1  0
M  END
>  <assay_chembl_id>  (458) 
CHEMBL3406943

>  <assay_description>  (458) 
Displacement of [3H]Mesulergine from human 5-HT2B receptor expressed in HEK293 cells by scintillation counting analysis

>  <parent_molecule_chembl_id>  (458) 
CHEMBL3547175

>  <canonical_smiles>  (458) 
CN(C)[C@H]1Cc2ccccc2[C@H](c2cccc(-c3ccccc3)c2)C1.Cl

>  <standard_type>  (458) 
Ki

>  <standard_relation>  (458) 
=

>  <standard_value>  (458) 
200.0

>  <standard_units>  (458) 
nM

>  <target_pref_name>  (458) 
Serotonin 2b (5-HT2b) receptor

>  <target_chembl_id>  (458) 
CHEMBL1833

>  <target_organism>  (458) 
Homo sapiens

>  <pchembl_median>  (458) 
7.47

$$$$
CHEMBL3402682
     RDKit          2D

 26 28  0  0  0  0  0  0  0  0999 V2000
    0.7500   -6.4952    0.0000 C   0  0  0  0  0  0  0  0  0  0  0  0
    1.5000   -5.1962    0.0000 N   0  0  0  0  0  0  0  0  0  0  0  0
    3.0000   -5.1962    0.0000 C   0  0  0  0  0  0  0  0  0  0  0  0
    0.7500   -3.8971    0.0000 C   0  0  0  0  0  0  0  0  0  0  0  0
    1.5000   -2.5981    0.0000 C   0  0  0  0  0  0  0  0  0  0  0  0
    0.7500   -1.2990    0.0000 C   0  0  0  0  0  0  0  0  0  0  0  0
    1.5000    0.0000    0.0000 C   0  0  0  0  0  0  0  0  0  0  0  0
    0.7500    1.2990    0.0000 C   0  0  0  0  0  0  0  0  0  0  0  0
   -0.7500    1.2990    0.0000 C   0  0  0  0  0  0  0  0  0  0  0  0
   -1.5000    0.0000    0.0000 C   0  0  0  0  0  0  0  0  0  0  0  0
   -0.7500   -1.2990    0.0000 C   0  0  0  0  0  0  0  0  0  0  0  0
   -1.5000   -2.5981    0.0000 C   0  0  0  0  0  0  0  0  0  0  0  0
   -3.0000   -2.5981    0.0000 C   0  0  0  0  0  0  0  0  0  0  0  0
   -3.7500   -1.2990    0.0000 C   0  0  0  0  0  0  0  0  0  0  0  0
   -5.2500   -1.2990    0.0000 C   0  0  0  0  0  0  0  0  0  0  0  0
   -6.0000   -2.5981    0.0000 C   0  0  0  0  0  0  0  0  0  0  0  0
   -5.2500   -3.8971    0.0000 C   0  0  0  0  0  0  0  0  0  0  0  0
   -6.0000   -5.1962    0.0000 C   0  0  0  0  0  0  0  0  0  0  0  0
   -7.5000   -5.1962    0.0000 C   0  0  0  0  0  0  0  0  0  0  0  0
   -8.2500   -6.4952    0.0000 C   0  0  0  0  0  0  0  0  0  0  0  0
   -7.5000   -7.7942    0.0000 C   0  0  0  0  0  0  0  0  0  0  0  0
   -6.0000   -7.7942    0.0000 C   0  0  0  0  0  0  0  0  0  0  0  0
   -5.2500   -6.4952    0.0000 C   0  0  0  0  0  0  0  0  0  0  0  0
   -3.7500   -3.8971    0.0000 C   0  0  0  0  0  0  0  0  0  0  0  0
   -0.7500   -3.8971    0.0000 C   0  0  0  0  0  0  0  0  0  0  0  0
    0.0000    2.2990    0.0000 Cl  0  0  0  0  0  0  0  0  0  0  0  0
  1  2  1  0
  2  3  1  0
  4  2  1  1
  4  5  1  0
  5  6  1  0
  6  7  2  0
  7  8  1  0
  8  9  2  0
  9 10  1  0
 10 11  2  0
 11 12  1  0
 12 13  1  6
 13 14  2  0
 14 15  1  0
 15 16  2  0
 16 17  1  0
 17 18  1  0
 18 19  2  0
 19 20  1  0
 20 21  2  0
 21 22  1  0
 22 23  2  0
 17 24  2  0
 12 25  1  0
 25  4  1  0
 11  6  1  0
 24 13  1  0
 23 18  1  0
M  END
>  <assay_chembl_id>  (459) 
CHEMBL3406943

>  <assay_description>  (459) 
Displacement of [3H]Mesulergine from human 5-HT2B receptor expressed in HEK293 cells by scintillation counting analysis

>  <parent_molecule_chembl_id>  (459) 
CHEMBL3547045

>  <canonical_smiles>  (459) 
CN(C)[C@@H]1Cc2ccccc2[C@@H](c2cccc(-c3ccccc3)c2)C1.Cl

>  <standard_type>  (459) 
Ki

>  <standard_relation>  (459) 
=

>  <standard_value>  (459) 
73.0

>  <standard_units>  (459) 
nM

>  <target_pref_name>  (459) 
Serotonin 2b (5-HT2b) receptor

>  <target_chembl_id>  (459) 
CHEMBL1833

>  <target_organism>  (459) 
Homo sapiens

>  <pchembl_median>  (459) 
7.4

$$$$
CHEMBL3402683
     RDKit          2D

 21 22  0  0  0  0  0  0  0  0999 V2000
    0.7500   -6.4952    0.0000 C   0  0  0  0  0  0  0  0  0  0  0  0
    1.5000   -5.1962    0.0000 N   0  0  0  0  0  0  0  0  0  0  0  0
    3.0000   -5.1962    0.0000 C   0  0  0  0  0  0  0  0  0  0  0  0
    0.7500   -3.8971    0.0000 C   0  0  0  0  0  0  0  0  0  0  0  0
    1.5000   -2.5981    0.0000 C   0  0  0  0  0  0  0  0  0  0  0  0
    0.7500   -1.2990    0.0000 C   0  0  0  0  0  0  0  0  0  0  0  0
    1.5000    0.0000    0.0000 C   0  0  0  0  0  0  0  0  0  0  0  0
    0.7500    1.2990    0.0000 C   0  0  0  0  0  0  0  0  0  0  0  0
   -0.7500    1.2990    0.0000 C   0  0  0  0  0  0  0  0  0  0  0  0
   -1.5000    0.0000    0.0000 C   0  0  0  0  0  0  0  0  0  0  0  0
   -0.7500   -1.2990    0.0000 C   0  0  0  0  0  0  0  0  0  0  0  0
   -1.5000   -2.5981    0.0000 C   0  0  0  0  0  0  0  0  0  0  0  0
   -3.0000   -2.5981    0.0000 C   0  0  0  0  0  0  0  0  0  0  0  0
   -3.7500   -1.2990    0.0000 C   0  0  0  0  0  0  0  0  0  0  0  0
   -5.2500   -1.2990    0.0000 C   0  0  0  0  0  0  0  0  0  0  0  0
   -6.0000   -2.5981    0.0000 C   0  0  0  0  0  0  0  0  0  0  0  0
   -5.2500   -3.8971    0.0000 C   0  0  0  0  0  0  0  0  0  0  0  0
   -3.7500   -3.8971    0.0000 C   0  0  0  0  0  0  0  0  0  0  0  0
   -3.0000   -5.1962    0.0000 Cl  0  0  0  0  0  0  0  0  0  0  0  0
   -0.7500   -3.8971    0.0000 C   0  0  0  0  0  0  0  0  0  0  0  0
    0.0000    2.2990    0.0000 Cl  0  0  0  0  0  0  0  0  0  0  0  0
  1  2  1  0
  2  3  1  0
  4  2  1  6
  4  5  1  0
  5  6  1  0
  6  7  2  0
  7  8  1  0
  8  9  2  0
  9 10  1  0
 10 11  2  0
 11 12  1  0
 12 13  1  1
 13 14  2  0
 14 15  1  0
 15 16  2  0
 16 17  1  0
 17 18  2  0
 18 19  1  0
 12 20  1  0
 20  4  1  0
 11  6  1  0
 18 13  1  0
M  END
>  <assay_chembl_id>  (460) 
CHEMBL3406943

>  <assay_description>  (460) 
Displacement of [3H]Mesulergine from human 5-HT2B receptor expressed in HEK293 cells by scintillation counting analysis

>  <parent_molecule_chembl_id>  (460) 
CHEMBL3547176

>  <canonical_smiles>  (460) 
CN(C)[C@H]1Cc2ccccc2[C@H](c2ccccc2Cl)C1.Cl

>  <standard_type>  (460) 
Ki

>  <standard_relation>  (460) 
=

>  <standard_value>  (460) 
710.0

>  <standard_units>  (460) 
nM

>  <target_pref_name>  (460) 
Serotonin 2b (5-HT2b) receptor

>  <target_chembl_id>  (460) 
CHEMBL1833

>  <target_organism>  (460) 
Homo sapiens

>  <pchembl_median>  (460) 
7.805

$$$$
CHEMBL3402684
     RDKit          2D

 21 22  0  0  0  0  0  0  0  0999 V2000
    0.7500   -6.4952    0.0000 C   0  0  0  0  0  0  0  0  0  0  0  0
    1.5000   -5.1962    0.0000 N   0  0  0  0  0  0  0  0  0  0  0  0
    3.0000   -5.1962    0.0000 C   0  0  0  0  0  0  0  0  0  0  0  0
    0.7500   -3.8971    0.0000 C   0  0  0  0  0  0  0  0  0  0  0  0
    1.5000   -2.5981    0.0000 C   0  0  0  0  0  0  0  0  0  0  0  0
    0.7500   -1.2990    0.0000 C   0  0  0  0  0  0  0  0  0  0  0  0
    1.5000    0.0000    0.0000 C   0  0  0  0  0  0  0  0  0  0  0  0
    0.7500    1.2990    0.0000 C   0  0  0  0  0  0  0  0  0  0  0  0
   -0.7500    1.2990    0.0000 C   0  0  0  0  0  0  0  0  0  0  0  0
   -1.5000    0.0000    0.0000 C   0  0  0  0  0  0  0  0  0  0  0  0
   -0.7500   -1.2990    0.0000 C   0  0  0  0  0  0  0  0  0  0  0  0
   -1.5000   -2.5981    0.0000 C   0  0  0  0  0  0  0  0  0  0  0  0
   -3.0000   -2.5981    0.0000 C   0  0  0  0  0  0  0  0  0  0  0  0
   -3.7500   -1.2990    0.0000 C   0  0  0  0  0  0  0  0  0  0  0  0
   -5.2500   -1.2990    0.0000 C   0  0  0  0  0  0  0  0  0  0  0  0
   -6.0000   -2.5981    0.0000 C   0  0  0  0  0  0  0  0  0  0  0  0
   -5.2500   -3.8971    0.0000 C   0  0  0  0  0  0  0  0  0  0  0  0
   -3.7500   -3.8971    0.0000 C   0  0  0  0  0  0  0  0  0  0  0  0
   -3.0000   -5.1962    0.0000 Cl  0  0  0  0  0  0  0  0  0  0  0  0
   -0.7500   -3.8971    0.0000 C   0  0  0  0  0  0  0  0  0  0  0  0
    0.0000    2.2990    0.0000 Cl  0  0  0  0  0  0  0  0  0  0  0  0
  1  2  1  0
  2  3  1  0
  4  2  1  1
  4  5  1  0
  5  6  1  0
  6  7  2  0
  7  8  1  0
  8  9  2  0
  9 10  1  0
 10 11  2  0
 11 12  1  0
 12 13  1  6
 13 14  2  0
 14 15  1  0
 15 16  2  0
 16 17  1  0
 17 18  2  0
 18 19  1  0
 12 20  1  0
 20  4  1  0
 11  6  1  0
 18 13  1  0
M  END
>  <assay_chembl_id>  (461) 
CHEMBL3406943

>  <assay_description>  (461) 
Displacement of [3H]Mesulergine from human 5-HT2B receptor expressed in HEK293 cells by scintillation counting analysis

>  <parent_molecule_chembl_id>  (461) 
CHEMBL3547177

>  <canonical_smiles>  (461) 
CN(C)[C@@H]1Cc2ccccc2[C@@H](c2ccccc2Cl)C1.Cl

>  <standard_type>  (461) 
Ki

>  <standard_relation>  (461) 
=

>  <standard_value>  (461) 
300.0

>  <standard_units>  (461) 
nM

>  <target_pref_name>  (461) 
Serotonin 2b (5-HT2b) receptor

>  <target_chembl_id>  (461) 
CHEMBL1833

>  <target_organism>  (461) 
Homo sapiens

>  <pchembl_median>  (461) 
6.34

$$$$
CHEMBL3402685
     RDKit          2D

 21 22  0  0  0  0  0  0  0  0999 V2000
   -3.0000   -5.1962    0.0000 C   0  0  0  0  0  0  0  0  0  0  0  0
   -3.7500   -3.8971    0.0000 C   0  0  0  0  0  0  0  0  0  0  0  0
   -5.2500   -3.8971    0.0000 C   0  0  0  0  0  0  0  0  0  0  0  0
   -6.0000   -2.5981    0.0000 C   0  0  0  0  0  0  0  0  0  0  0  0
   -5.2500   -1.2990    0.0000 C   0  0  0  0  0  0  0  0  0  0  0  0
   -3.7500   -1.2990    0.0000 C   0  0  0  0  0  0  0  0  0  0  0  0
   -3.0000   -2.5981    0.0000 C   0  0  0  0  0  0  0  0  0  0  0  0
   -1.5000   -2.5981    0.0000 C   0  0  0  0  0  0  0  0  0  0  0  0
   -0.7500   -3.8971    0.0000 C   0  0  0  0  0  0  0  0  0  0  0  0
    0.7500   -3.8971    0.0000 C   0  0  0  0  0  0  0  0  0  0  0  0
    1.5000   -5.1962    0.0000 N   0  0  0  0  0  0  0  0  0  0  0  0
    0.7500   -6.4952    0.0000 C   0  0  0  0  0  0  0  0  0  0  0  0
    3.0000   -5.1962    0.0000 C   0  0  0  0  0  0  0  0  0  0  0  0
    1.5000   -2.5981    0.0000 C   0  0  0  0  0  0  0  0  0  0  0  0
    0.7500   -1.2990    0.0000 C   0  0  0  0  0  0  0  0  0  0  0  0
    1.5000    0.0000    0.0000 C   0  0  0  0  0  0  0  0  0  0  0  0
    0.7500    1.2990    0.0000 C   0  0  0  0  0  0  0  0  0  0  0  0
   -0.7500    1.2990    0.0000 C   0  0  0  0  0  0  0  0  0  0  0  0
   -1.5000    0.0000    0.0000 C   0  0  0  0  0  0  0  0  0  0  0  0
   -0.7500   -1.2990    0.0000 C   0  0  0  0  0  0  0  0  0  0  0  0
    0.0000    2.2990    0.0000 Cl  0  0  0  0  0  0  0  0  0  0  0  0
  1  2  1  0
  2  3  2  0
  3  4  1  0
  4  5  2  0
  5  6  1  0
  6  7  2  0
  8  7  1  1
  8  9  1  0
  9 10  1  0
 10 11  1  6
 11 12  1  0
 11 13  1  0
 10 14  1  0
 14 15  1  0
 15 16  2  0
 16 17  1  0
 17 18  2  0
 18 19  1  0
 19 20  2  0
  7  2  1  0
 20  8  1  0
 20 15  1  0
M  END
>  <assay_chembl_id>  (462) 
CHEMBL3406943

>  <assay_description>  (462) 
Displacement of [3H]Mesulergine from human 5-HT2B receptor expressed in HEK293 cells by scintillation counting analysis

>  <parent_molecule_chembl_id>  (462) 
CHEMBL3547178

>  <canonical_smiles>  (462) 
Cc1ccccc1[C@@H]1C[C@@H](N(C)C)Cc2ccccc21.Cl

>  <standard_type>  (462) 
Ki

>  <standard_relation>  (462) 
=

>  <standard_value>  (462) 
6000.0

>  <standard_units>  (462) 
nM

>  <target_pref_name>  (462) 
Serotonin 2b (5-HT2b) receptor

>  <target_chembl_id>  (462) 
CHEMBL1833

>  <target_organism>  (462) 
Homo sapiens

>  <pchembl_median>  (462) 
5.83

$$$$
CHEMBL3402686
     RDKit          2D

 21 22  0  0  0  0  0  0  0  0999 V2000
   -3.0000   -5.1962    0.0000 C   0  0  0  0  0  0  0  0  0  0  0  0
   -3.7500   -3.8971    0.0000 C   0  0  0  0  0  0  0  0  0  0  0  0
   -5.2500   -3.8971    0.0000 C   0  0  0  0  0  0  0  0  0  0  0  0
   -6.0000   -2.5981    0.0000 C   0  0  0  0  0  0  0  0  0  0  0  0
   -5.2500   -1.2990    0.0000 C   0  0  0  0  0  0  0  0  0  0  0  0
   -3.7500   -1.2990    0.0000 C   0  0  0  0  0  0  0  0  0  0  0  0
   -3.0000   -2.5981    0.0000 C   0  0  0  0  0  0  0  0  0  0  0  0
   -1.5000   -2.5981    0.0000 C   0  0  0  0  0  0  0  0  0  0  0  0
   -0.7500   -3.8971    0.0000 C   0  0  0  0  0  0  0  0  0  0  0  0
    0.7500   -3.8971    0.0000 C   0  0  0  0  0  0  0  0  0  0  0  0
    1.5000   -5.1962    0.0000 N   0  0  0  0  0  0  0  0  0  0  0  0
    0.7500   -6.4952    0.0000 C   0  0  0  0  0  0  0  0  0  0  0  0
    3.0000   -5.1962    0.0000 C   0  0  0  0  0  0  0  0  0  0  0  0
    1.5000   -2.5981    0.0000 C   0  0  0  0  0  0  0  0  0  0  0  0
    0.7500   -1.2990    0.0000 C   0  0  0  0  0  0  0  0  0  0  0  0
    1.5000    0.0000    0.0000 C   0  0  0  0  0  0  0  0  0  0  0  0
    0.7500    1.2990    0.0000 C   0  0  0  0  0  0  0  0  0  0  0  0
   -0.7500    1.2990    0.0000 C   0  0  0  0  0  0  0  0  0  0  0  0
   -1.5000    0.0000    0.0000 C   0  0  0  0  0  0  0  0  0  0  0  0
   -0.7500   -1.2990    0.0000 C   0  0  0  0  0  0  0  0  0  0  0  0
    0.0000    2.2990    0.0000 Cl  0  0  0  0  0  0  0  0  0  0  0  0
  1  2  1  0
  2  3  2  0
  3  4  1  0
  4  5  2  0
  5  6  1  0
  6  7  2  0
  8  7  1  6
  8  9  1  0
  9 10  1  0
 10 11  1  1
 11 12  1  0
 11 13  1  0
 10 14  1  0
 14 15  1  0
 15 16  2  0
 16 17  1  0
 17 18  2  0
 18 19  1  0
 19 20  2  0
  7  2  1  0
 20  8  1  0
 20 15  1  0
M  END
>  <assay_chembl_id>  (463) 
CHEMBL3406943

>  <assay_description>  (463) 
Displacement of [3H]Mesulergine from human 5-HT2B receptor expressed in HEK293 cells by scintillation counting analysis

>  <parent_molecule_chembl_id>  (463) 
CHEMBL3547018

>  <canonical_smiles>  (463) 
Cc1ccccc1[C@H]1C[C@H](N(C)C)Cc2ccccc21.Cl

>  <standard_type>  (463) 
Ki

>  <standard_relation>  (463) 
=

>  <standard_value>  (463) 
800.0

>  <standard_units>  (463) 
nM

>  <target_pref_name>  (463) 
Serotonin 2b (5-HT2b) receptor

>  <target_chembl_id>  (463) 
CHEMBL1833

>  <target_organism>  (463) 
Homo sapiens

>  <pchembl_median>  (463) 
7.11

$$$$
CHEMBL3402679
     RDKit          2D

 19 21  0  0  0  0  0  0  0  0999 V2000
    0.7500   -6.4952    0.0000 C   0  0  0  0  0  0  0  0  0  0  0  0
    1.5000   -5.1962    0.0000 N   0  0  0  0  0  0  0  0  0  0  0  0
    3.0000   -5.1962    0.0000 C   0  0  0  0  0  0  0  0  0  0  0  0
    0.7500   -3.8971    0.0000 C   0  0  0  0  0  0  0  0  0  0  0  0
    1.5000   -2.5981    0.0000 C   0  0  0  0  0  0  0  0  0  0  0  0
    0.7500   -1.2990    0.0000 C   0  0  0  0  0  0  0  0  0  0  0  0
    1.5000    0.0000    0.0000 C   0  0  0  0  0  0  0  0  0  0  0  0
    0.7500    1.2990    0.0000 C   0  0  0  0  0  0  0  0  0  0  0  0
   -0.7500    1.2990    0.0000 C   0  0  0  0  0  0  0  0  0  0  0  0
   -1.5000    0.0000    0.0000 C   0  0  0  0  0  0  0  0  0  0  0  0
   -0.7500   -1.2990    0.0000 C   0  0  0  0  0  0  0  0  0  0  0  0
   -1.5000   -2.5981    0.0000 C   0  0  0  0  0  0  0  0  0  0  0  0
   -3.0000   -2.5981    0.0000 C   0  0  0  0  0  0  0  0  0  0  0  0
   -3.7500   -1.2990    0.0000 C   0  0  0  0  0  0  0  0  0  0  0  0
   -5.2500   -1.2990    0.0000 C   0  0  0  0  0  0  0  0  0  0  0  0
   -6.0000   -2.5981    0.0000 C   0  0  0  0  0  0  0  0  0  0  0  0
   -5.2500   -3.8971    0.0000 C   0  0  0  0  0  0  0  0  0  0  0  0
   -3.7500   -3.8971    0.0000 C   0  0  0  0  0  0  0  0  0  0  0  0
   -0.7500   -3.8971    0.0000 C   0  0  0  0  0  0  0  0  0  0  0  0
  1  2  1  0
  2  3  1  0
  4  2  1  6
  4  5  1  0
  5  6  1  0
  6  7  2  0
  7  8  1  0
  8  9  2  0
  9 10  1  0
 10 11  2  0
 11 12  1  0
 12 13  1  1
 13 14  2  0
 14 15  1  0
 15 16  2  0
 16 17  1  0
 17 18  2  0
 12 19  1  0
 19  4  1  0
 11  6  1  0
 18 13  1  0
M  END
>  <assay_chembl_id>  (464) 
CHEMBL3406943

>  <assay_description>  (464) 
Displacement of [3H]Mesulergine from human 5-HT2B receptor expressed in HEK293 cells by scintillation counting analysis

>  <parent_molecule_chembl_id>  (464) 
CHEMBL3402679

>  <canonical_smiles>  (464) 
CN(C)[C@H]1Cc2ccccc2[C@H](c2ccccc2)C1

>  <standard_type>  (464) 
Ki

>  <standard_relation>  (464) 
=

>  <standard_value>  (464) 
240.0

>  <standard_units>  (464) 
nM

>  <target_pref_name>  (464) 
Serotonin 2b (5-HT2b) receptor

>  <target_chembl_id>  (464) 
CHEMBL1833

>  <target_organism>  (464) 
Homo sapiens

>  <pchembl_median>  (464) 
6.73

$$$$
CHEMBL127307
     RDKit          2D

 19 21  0  0  0  0  0  0  0  0999 V2000
    0.7500   -6.4952    0.0000 C   0  0  0  0  0  0  0  0  0  0  0  0
    1.5000   -5.1962    0.0000 N   0  0  0  0  0  0  0  0  0  0  0  0
    3.0000   -5.1962    0.0000 C   0  0  0  0  0  0  0  0  0  0  0  0
    0.7500   -3.8971    0.0000 C   0  0  0  0  0  0  0  0  0  0  0  0
    1.5000   -2.5981    0.0000 C   0  0  0  0  0  0  0  0  0  0  0  0
    0.7500   -1.2990    0.0000 C   0  0  0  0  0  0  0  0  0  0  0  0
    1.5000    0.0000    0.0000 C   0  0  0  0  0  0  0  0  0  0  0  0
    0.7500    1.2990    0.0000 C   0  0  0  0  0  0  0  0  0  0  0  0
   -0.7500    1.2990    0.0000 C   0  0  0  0  0  0  0  0  0  0  0  0
   -1.5000    0.0000    0.0000 C   0  0  0  0  0  0  0  0  0  0  0  0
   -0.7500   -1.2990    0.0000 C   0  0  0  0  0  0  0  0  0  0  0  0
   -1.5000   -2.5981    0.0000 C   0  0  0  0  0  0  0  0  0  0  0  0
   -3.0000   -2.5981    0.0000 C   0  0  0  0  0  0  0  0  0  0  0  0
   -3.7500   -1.2990    0.0000 C   0  0  0  0  0  0  0  0  0  0  0  0
   -5.2500   -1.2990    0.0000 C   0  0  0  0  0  0  0  0  0  0  0  0
   -6.0000   -2.5981    0.0000 C   0  0  0  0  0  0  0  0  0  0  0  0
   -5.2500   -3.8971    0.0000 C   0  0  0  0  0  0  0  0  0  0  0  0
   -3.7500   -3.8971    0.0000 C   0  0  0  0  0  0  0  0  0  0  0  0
   -0.7500   -3.8971    0.0000 C   0  0  0  0  0  0  0  0  0  0  0  0
  1  2  1  0
  2  3  1  0
  4  2  1  1
  4  5  1  0
  5  6  1  0
  6  7  2  0
  7  8  1  0
  8  9  2  0
  9 10  1  0
 10 11  2  0
 11 12  1  0
 12 13  1  6
 13 14  2  0
 14 15  1  0
 15 16  2  0
 16 17  1  0
 17 18  2  0
 12 19  1  0
 19  4  1  0
 11  6  1  0
 18 13  1  0
M  END
>  <assay_chembl_id>  (465) 
CHEMBL3406943

>  <assay_description>  (465) 
Displacement of [3H]Mesulergine from human 5-HT2B receptor expressed in HEK293 cells by scintillation counting analysis

>  <parent_molecule_chembl_id>  (465) 
CHEMBL127307

>  <canonical_smiles>  (465) 
CN(C)[C@@H]1Cc2ccccc2[C@@H](c2ccccc2)C1

>  <standard_type>  (465) 
Ki

>  <standard_relation>  (465) 
=

>  <standard_value>  (465) 
94.0

>  <standard_units>  (465) 
nM

>  <target_pref_name>  (465) 
Serotonin 2b (5-HT2b) receptor

>  <target_chembl_id>  (465) 
CHEMBL1833

>  <target_organism>  (465) 
Homo sapiens

>  <pchembl_median>  (465) 
6.9

$$$$
CHEMBL3402678
     RDKit          2D

 21 22  0  0  0  0  0  0  0  0999 V2000
    0.7500   -6.4952    0.0000 C   0  0  0  0  0  0  0  0  0  0  0  0
    1.5000   -5.1962    0.0000 N   0  0  0  0  0  0  0  0  0  0  0  0
    3.0000   -5.1962    0.0000 C   0  0  0  0  0  0  0  0  0  0  0  0
    0.7500   -3.8971    0.0000 C   0  0  0  0  0  0  0  0  0  0  0  0
    1.5000   -2.5981    0.0000 C   0  0  0  0  0  0  0  0  0  0  0  0
    0.7500   -1.2990    0.0000 C   0  0  0  0  0  0  0  0  0  0  0  0
    1.5000    0.0000    0.0000 C   0  0  0  0  0  0  0  0  0  0  0  0
    0.7500    1.2990    0.0000 C   0  0  0  0  0  0  0  0  0  0  0  0
   -0.7500    1.2990    0.0000 C   0  0  0  0  0  0  0  0  0  0  0  0
   -1.5000    0.0000    0.0000 C   0  0  0  0  0  0  0  0  0  0  0  0
   -0.7500   -1.2990    0.0000 C   0  0  0  0  0  0  0  0  0  0  0  0
   -1.5000   -2.5981    0.0000 C   0  0  0  0  0  0  0  0  0  0  0  0
   -3.0000   -2.5981    0.0000 C   0  0  0  0  0  0  0  0  0  0  0  0
   -3.7500   -1.2990    0.0000 C   0  0  0  0  0  0  0  0  0  0  0  0
   -5.2500   -1.2990    0.0000 C   0  0  0  0  0  0  0  0  0  0  0  0
   -6.0000   -2.5981    0.0000 C   0  0  0  0  0  0  0  0  0  0  0  0
   -5.2500   -3.8971    0.0000 C   0  0  0  0  0  0  0  0  0  0  0  0
   -6.0000   -5.1962    0.0000 F   0  0  0  0  0  0  0  0  0  0  0  0
   -3.7500   -3.8971    0.0000 C   0  0  0  0  0  0  0  0  0  0  0  0
   -0.7500   -3.8971    0.0000 C   0  0  0  0  0  0  0  0  0  0  0  0
    0.0000    2.2990    0.0000 Cl  0  0  0  0  0  0  0  0  0  0  0  0
  1  2  1  0
  2  3  1  0
  4  2  1  6
  4  5  1  0
  5  6  1  0
  6  7  2  0
  7  8  1  0
  8  9  2  0
  9 10  1  0
 10 11  2  0
 11 12  1  0
 12 13  1  1
 13 14  2  0
 14 15  1  0
 15 16  2  0
 16 17  1  0
 17 18  1  0
 17 19  2  0
 12 20  1  0
 20  4  1  0
 11  6  1  0
 19 13  1  0
M  END
>  <assay_chembl_id>  (466) 
CHEMBL3406943

>  <assay_description>  (466) 
Displacement of [3H]Mesulergine from human 5-HT2B receptor expressed in HEK293 cells by scintillation counting analysis

>  <parent_molecule_chembl_id>  (466) 
CHEMBL3547139

>  <canonical_smiles>  (466) 
CN(C)[C@H]1Cc2ccccc2[C@H](c2cccc(F)c2)C1.Cl

>  <standard_type>  (466) 
Ki

>  <standard_relation>  (466) 
=

>  <standard_value>  (466) 
110.0

>  <standard_units>  (466) 
nM

>  <target_pref_name>  (466) 
Serotonin 2b (5-HT2b) receptor

>  <target_chembl_id>  (466) 
CHEMBL1833

>  <target_organism>  (466) 
Homo sapiens

>  <pchembl_median>  (466) 
5.72

$$$$
CHEMBL3402677
     RDKit          2D

 21 22  0  0  0  0  0  0  0  0999 V2000
    0.7500   -6.4952    0.0000 C   0  0  0  0  0  0  0  0  0  0  0  0
    1.5000   -5.1962    0.0000 N   0  0  0  0  0  0  0  0  0  0  0  0
    3.0000   -5.1962    0.0000 C   0  0  0  0  0  0  0  0  0  0  0  0
    0.7500   -3.8971    0.0000 C   0  0  0  0  0  0  0  0  0  0  0  0
    1.5000   -2.5981    0.0000 C   0  0  0  0  0  0  0  0  0  0  0  0
    0.7500   -1.2990    0.0000 C   0  0  0  0  0  0  0  0  0  0  0  0
    1.5000    0.0000    0.0000 C   0  0  0  0  0  0  0  0  0  0  0  0
    0.7500    1.2990    0.0000 C   0  0  0  0  0  0  0  0  0  0  0  0
   -0.7500    1.2990    0.0000 C   0  0  0  0  0  0  0  0  0  0  0  0
   -1.5000    0.0000    0.0000 C   0  0  0  0  0  0  0  0  0  0  0  0
   -0.7500   -1.2990    0.0000 C   0  0  0  0  0  0  0  0  0  0  0  0
   -1.5000   -2.5981    0.0000 C   0  0  0  0  0  0  0  0  0  0  0  0
   -3.0000   -2.5981    0.0000 C   0  0  0  0  0  0  0  0  0  0  0  0
   -3.7500   -1.2990    0.0000 C   0  0  0  0  0  0  0  0  0  0  0  0
   -5.2500   -1.2990    0.0000 C   0  0  0  0  0  0  0  0  0  0  0  0
   -6.0000   -2.5981    0.0000 C   0  0  0  0  0  0  0  0  0  0  0  0
   -5.2500   -3.8971    0.0000 C   0  0  0  0  0  0  0  0  0  0  0  0
   -6.0000   -5.1962    0.0000 F   0  0  0  0  0  0  0  0  0  0  0  0
   -3.7500   -3.8971    0.0000 C   0  0  0  0  0  0  0  0  0  0  0  0
   -0.7500   -3.8971    0.0000 C   0  0  0  0  0  0  0  0  0  0  0  0
    0.0000    2.2990    0.0000 Cl  0  0  0  0  0  0  0  0  0  0  0  0
  1  2  1  0
  2  3  1  0
  4  2  1  1
  4  5  1  0
  5  6  1  0
  6  7  2  0
  7  8  1  0
  8  9  2  0
  9 10  1  0
 10 11  2  0
 11 12  1  0
 12 13  1  6
 13 14  2  0
 14 15  1  0
 15 16  2  0
 16 17  1  0
 17 18  1  0
 17 19  2  0
 12 20  1  0
 20  4  1  0
 11  6  1  0
 19 13  1  0
M  END
>  <assay_chembl_id>  (467) 
CHEMBL3406943

>  <assay_description>  (467) 
Displacement of [3H]Mesulergine from human 5-HT2B receptor expressed in HEK293 cells by scintillation counting analysis

>  <parent_molecule_chembl_id>  (467) 
CHEMBL3547138

>  <canonical_smiles>  (467) 
CN(C)[C@@H]1Cc2ccccc2[C@@H](c2cccc(F)c2)C1.Cl

>  <standard_type>  (467) 
Ki

>  <standard_relation>  (467) 
=

>  <standard_value>  (467) 
70.0

>  <standard_units>  (467) 
nM

>  <target_pref_name>  (467) 
Serotonin 2b (5-HT2b) receptor

>  <target_chembl_id>  (467) 
CHEMBL1833

>  <target_organism>  (467) 
Homo sapiens

>  <pchembl_median>  (467) 
5.33

$$$$
CHEMBL3402676
     RDKit          2D

 21 22  0  0  0  0  0  0  0  0999 V2000
    0.7500   -6.4952    0.0000 C   0  0  0  0  0  0  0  0  0  0  0  0
    1.5000   -5.1962    0.0000 N   0  0  0  0  0  0  0  0  0  0  0  0
    3.0000   -5.1962    0.0000 C   0  0  0  0  0  0  0  0  0  0  0  0
    0.7500   -3.8971    0.0000 C   0  0  0  0  0  0  0  0  0  0  0  0
    1.5000   -2.5981    0.0000 C   0  0  0  0  0  0  0  0  0  0  0  0
    0.7500   -1.2990    0.0000 C   0  0  0  0  0  0  0  0  0  0  0  0
    1.5000    0.0000    0.0000 C   0  0  0  0  0  0  0  0  0  0  0  0
    0.7500    1.2990    0.0000 C   0  0  0  0  0  0  0  0  0  0  0  0
   -0.7500    1.2990    0.0000 C   0  0  0  0  0  0  0  0  0  0  0  0
   -1.5000    0.0000    0.0000 C   0  0  0  0  0  0  0  0  0  0  0  0
   -0.7500   -1.2990    0.0000 C   0  0  0  0  0  0  0  0  0  0  0  0
   -1.5000   -2.5981    0.0000 C   0  0  0  0  0  0  0  0  0  0  0  0
   -3.0000   -2.5981    0.0000 C   0  0  0  0  0  0  0  0  0  0  0  0
   -3.7500   -1.2990    0.0000 C   0  0  0  0  0  0  0  0  0  0  0  0
   -5.2500   -1.2990    0.0000 C   0  0  0  0  0  0  0  0  0  0  0  0
   -6.0000   -2.5981    0.0000 C   0  0  0  0  0  0  0  0  0  0  0  0
   -5.2500   -3.8971    0.0000 C   0  0  0  0  0  0  0  0  0  0  0  0
   -6.0000   -5.1962    0.0000 Cl  0  0  0  0  0  0  0  0  0  0  0  0
   -3.7500   -3.8971    0.0000 C   0  0  0  0  0  0  0  0  0  0  0  0
   -0.7500   -3.8971    0.0000 C   0  0  0  0  0  0  0  0  0  0  0  0
    0.0000    2.2990    0.0000 Cl  0  0  0  0  0  0  0  0  0  0  0  0
  1  2  1  0
  2  3  1  0
  4  2  1  6
  4  5  1  0
  5  6  1  0
  6  7  2  0
  7  8  1  0
  8  9  2  0
  9 10  1  0
 10 11  2  0
 11 12  1  0
 12 13  1  1
 13 14  2  0
 14 15  1  0
 15 16  2  0
 16 17  1  0
 17 18  1  0
 17 19  2  0
 12 20  1  0
 20  4  1  0
 11  6  1  0
 19 13  1  0
M  END
>  <assay_chembl_id>  (468) 
CHEMBL3406943

>  <assay_description>  (468) 
Displacement of [3H]Mesulergine from human 5-HT2B receptor expressed in HEK293 cells by scintillation counting analysis

>  <parent_molecule_chembl_id>  (468) 
CHEMBL3547137

>  <canonical_smiles>  (468) 
CN(C)[C@H]1Cc2ccccc2[C@H](c2cccc(Cl)c2)C1.Cl

>  <standard_type>  (468) 
Ki

>  <standard_relation>  (468) 
=

>  <standard_value>  (468) 
50.0

>  <standard_units>  (468) 
nM

>  <target_pref_name>  (468) 
Serotonin 2b (5-HT2b) receptor

>  <target_chembl_id>  (468) 
CHEMBL1833

>  <target_organism>  (468) 
Homo sapiens

>  <pchembl_median>  (468) 
5.68

$$$$
CHEMBL3402675
     RDKit          2D

 21 22  0  0  0  0  0  0  0  0999 V2000
    0.7500   -6.4952    0.0000 C   0  0  0  0  0  0  0  0  0  0  0  0
    1.5000   -5.1962    0.0000 N   0  0  0  0  0  0  0  0  0  0  0  0
    3.0000   -5.1962    0.0000 C   0  0  0  0  0  0  0  0  0  0  0  0
    0.7500   -3.8971    0.0000 C   0  0  0  0  0  0  0  0  0  0  0  0
    1.5000   -2.5981    0.0000 C   0  0  0  0  0  0  0  0  0  0  0  0
    0.7500   -1.2990    0.0000 C   0  0  0  0  0  0  0  0  0  0  0  0
    1.5000    0.0000    0.0000 C   0  0  0  0  0  0  0  0  0  0  0  0
    0.7500    1.2990    0.0000 C   0  0  0  0  0  0  0  0  0  0  0  0
   -0.7500    1.2990    0.0000 C   0  0  0  0  0  0  0  0  0  0  0  0
   -1.5000    0.0000    0.0000 C   0  0  0  0  0  0  0  0  0  0  0  0
   -0.7500   -1.2990    0.0000 C   0  0  0  0  0  0  0  0  0  0  0  0
   -1.5000   -2.5981    0.0000 C   0  0  0  0  0  0  0  0  0  0  0  0
   -3.0000   -2.5981    0.0000 C   0  0  0  0  0  0  0  0  0  0  0  0
   -3.7500   -1.2990    0.0000 C   0  0  0  0  0  0  0  0  0  0  0  0
   -5.2500   -1.2990    0.0000 C   0  0  0  0  0  0  0  0  0  0  0  0
   -6.0000   -2.5981    0.0000 C   0  0  0  0  0  0  0  0  0  0  0  0
   -5.2500   -3.8971    0.0000 C   0  0  0  0  0  0  0  0  0  0  0  0
   -6.0000   -5.1962    0.0000 Cl  0  0  0  0  0  0  0  0  0  0  0  0
   -3.7500   -3.8971    0.0000 C   0  0  0  0  0  0  0  0  0  0  0  0
   -0.7500   -3.8971    0.0000 C   0  0  0  0  0  0  0  0  0  0  0  0
    0.0000    2.2990    0.0000 Cl  0  0  0  0  0  0  0  0  0  0  0  0
  1  2  1  0
  2  3  1  0
  4  2  1  1
  4  5  1  0
  5  6  1  0
  6  7  2  0
  7  8  1  0
  8  9  2  0
  9 10  1  0
 10 11  2  0
 11 12  1  0
 12 13  1  6
 13 14  2  0
 14 15  1  0
 15 16  2  0
 16 17  1  0
 17 18  1  0
 17 19  2  0
 12 20  1  0
 20  4  1  0
 11  6  1  0
 19 13  1  0
M  END
>  <assay_chembl_id>  (469) 
CHEMBL3406943

>  <assay_description>  (469) 
Displacement of [3H]Mesulergine from human 5-HT2B receptor expressed in HEK293 cells by scintillation counting analysis

>  <parent_molecule_chembl_id>  (469) 
CHEMBL3547136

>  <canonical_smiles>  (469) 
CN(C)[C@@H]1Cc2ccccc2[C@@H](c2cccc(Cl)c2)C1.Cl

>  <standard_type>  (469) 
Ki

>  <standard_relation>  (469) 
=

>  <standard_value>  (469) 
30.0

>  <standard_units>  (469) 
nM

>  <target_pref_name>  (469) 
Serotonin 2b (5-HT2b) receptor

>  <target_chembl_id>  (469) 
CHEMBL1833

>  <target_organism>  (469) 
Homo sapiens

>  <pchembl_median>  (469) 
5.4

$$$$
CHEMBL3402674
     RDKit          2D

 21 22  0  0  0  0  0  0  0  0999 V2000
    0.7500   -6.4952    0.0000 C   0  0  0  0  0  0  0  0  0  0  0  0
    1.5000   -5.1962    0.0000 N   0  0  0  0  0  0  0  0  0  0  0  0
    3.0000   -5.1962    0.0000 C   0  0  0  0  0  0  0  0  0  0  0  0
    0.7500   -3.8971    0.0000 C   0  0  0  0  0  0  0  0  0  0  0  0
    1.5000   -2.5981    0.0000 C   0  0  0  0  0  0  0  0  0  0  0  0
    0.7500   -1.2990    0.0000 C   0  0  0  0  0  0  0  0  0  0  0  0
    1.5000    0.0000    0.0000 C   0  0  0  0  0  0  0  0  0  0  0  0
    0.7500    1.2990    0.0000 C   0  0  0  0  0  0  0  0  0  0  0  0
   -0.7500    1.2990    0.0000 C   0  0  0  0  0  0  0  0  0  0  0  0
   -1.5000    0.0000    0.0000 C   0  0  0  0  0  0  0  0  0  0  0  0
   -0.7500   -1.2990    0.0000 C   0  0  0  0  0  0  0  0  0  0  0  0
   -1.5000   -2.5981    0.0000 C   0  0  0  0  0  0  0  0  0  0  0  0
   -3.0000   -2.5981    0.0000 C   0  0  0  0  0  0  0  0  0  0  0  0
   -3.7500   -1.2990    0.0000 C   0  0  0  0  0  0  0  0  0  0  0  0
   -5.2500   -1.2990    0.0000 C   0  0  0  0  0  0  0  0  0  0  0  0
   -6.0000   -2.5981    0.0000 C   0  0  0  0  0  0  0  0  0  0  0  0
   -5.2500   -3.8971    0.0000 C   0  0  0  0  0  0  0  0  0  0  0  0
   -6.0000   -5.1962    0.0000 Br  0  0  0  0  0  0  0  0  0  0  0  0
   -3.7500   -3.8971    0.0000 C   0  0  0  0  0  0  0  0  0  0  0  0
   -0.7500   -3.8971    0.0000 C   0  0  0  0  0  0  0  0  0  0  0  0
    0.0000    2.2990    0.0000 Cl  0  0  0  0  0  0  0  0  0  0  0  0
  1  2  1  0
  2  3  1  0
  4  2  1  6
  4  5  1  0
  5  6  1  0
  6  7  2  0
  7  8  1  0
  8  9  2  0
  9 10  1  0
 10 11  2  0
 11 12  1  0
 12 13  1  1
 13 14  2  0
 14 15  1  0
 15 16  2  0
 16 17  1  0
 17 18  1  0
 17 19  2  0
 12 20  1  0
 20  4  1  0
 11  6  1  0
 19 13  1  0
M  END
>  <assay_chembl_id>  (470) 
CHEMBL3406943

>  <assay_description>  (470) 
Displacement of [3H]Mesulergine from human 5-HT2B receptor expressed in HEK293 cells by scintillation counting analysis

>  <parent_molecule_chembl_id>  (470) 
CHEMBL3547135

>  <canonical_smiles>  (470) 
CN(C)[C@H]1Cc2ccccc2[C@H](c2cccc(Br)c2)C1.Cl

>  <standard_type>  (470) 
Ki

>  <standard_relation>  (470) 
=

>  <standard_value>  (470) 
40.0

>  <standard_units>  (470) 
nM

>  <target_pref_name>  (470) 
Serotonin 2b (5-HT2b) receptor

>  <target_chembl_id>  (470) 
CHEMBL1833

>  <target_organism>  (470) 
Homo sapiens

>  <pchembl_median>  (470) 
7.6

$$$$
CHEMBL3402670
     RDKit          2D

 23 24  0  0  0  0  0  0  0  0999 V2000
    0.7500   -6.4952    0.0000 C   0  0  0  0  0  0  0  0  0  0  0  0
    1.5000   -5.1962    0.0000 N   0  0  0  0  0  0  0  0  0  0  0  0
    3.0000   -5.1962    0.0000 C   0  0  0  0  0  0  0  0  0  0  0  0
    0.7500   -3.8971    0.0000 C   0  0  0  0  0  0  0  0  0  0  0  0
    1.5000   -2.5981    0.0000 C   0  0  0  0  0  0  0  0  0  0  0  0
    0.7500   -1.2990    0.0000 C   0  0  0  0  0  0  0  0  0  0  0  0
    1.5000    0.0000    0.0000 C   0  0  0  0  0  0  0  0  0  0  0  0
    0.7500    1.2990    0.0000 C   0  0  0  0  0  0  0  0  0  0  0  0
   -0.7500    1.2990    0.0000 C   0  0  0  0  0  0  0  0  0  0  0  0
   -1.5000    0.0000    0.0000 C   0  0  0  0  0  0  0  0  0  0  0  0
   -0.7500   -1.2990    0.0000 C   0  0  0  0  0  0  0  0  0  0  0  0
   -1.5000   -2.5981    0.0000 C   0  0  0  0  0  0  0  0  0  0  0  0
   -3.0000   -2.5981    0.0000 C   0  0  0  0  0  0  0  0  0  0  0  0
   -3.7500   -1.2990    0.0000 C   0  0  0  0  0  0  0  0  0  0  0  0
   -5.2500   -1.2990    0.0000 C   0  0  0  0  0  0  0  0  0  0  0  0
   -6.0000   -2.5981    0.0000 C   0  0  0  0  0  0  0  0  0  0  0  0
   -5.2500   -3.8971    0.0000 C   0  0  0  0  0  0  0  0  0  0  0  0
   -6.0000   -5.1962    0.0000 N   0  0  0  0  0  4  0  0  0  0  0  0
   -5.2500   -6.4952    0.0000 O   0  0  0  0  0  0  0  0  0  0  0  0
   -7.5000   -5.1962    0.0000 O   0  0  0  0  0  1  0  0  0  0  0  0
   -3.7500   -3.8971    0.0000 C   0  0  0  0  0  0  0  0  0  0  0  0
   -0.7500   -3.8971    0.0000 C   0  0  0  0  0  0  0  0  0  0  0  0
    0.0000    2.2990    0.0000 Cl  0  0  0  0  0  0  0  0  0  0  0  0
  1  2  1  0
  2  3  1  0
  4  2  1  6
  4  5  1  0
  5  6  1  0
  6  7  2  0
  7  8  1  0
  8  9  2  0
  9 10  1  0
 10 11  2  0
 11 12  1  0
 12 13  1  1
 13 14  2  0
 14 15  1  0
 15 16  2  0
 16 17  1  0
 17 18  1  0
 18 19  2  0
 18 20  1  0
 17 21  2  0
 12 22  1  0
 22  4  1  0
 11  6  1  0
 21 13  1  0
M  CHG  2  18   1  20  -1
M  END
>  <assay_chembl_id>  (471) 
CHEMBL3406943

>  <assay_description>  (471) 
Displacement of [3H]Mesulergine from human 5-HT2B receptor expressed in HEK293 cells by scintillation counting analysis

>  <parent_molecule_chembl_id>  (471) 
CHEMBL3547156

>  <canonical_smiles>  (471) 
CN(C)[C@H]1Cc2ccccc2[C@H](c2cccc([N+](=O)[O-])c2)C1.Cl

>  <standard_type>  (471) 
Ki

>  <standard_relation>  (471) 
=

>  <standard_value>  (471) 
20.0

>  <standard_units>  (471) 
nM

>  <target_pref_name>  (471) 
Serotonin 2b (5-HT2b) receptor

>  <target_chembl_id>  (471) 
CHEMBL1833

>  <target_organism>  (471) 
Homo sapiens

>  <pchembl_median>  (471) 
6.7

$$$$
CHEMBL3402671
     RDKit          2D

 24 25  0  0  0  0  0  0  0  0999 V2000
    0.7500   -6.4952    0.0000 C   0  0  0  0  0  0  0  0  0  0  0  0
    1.5000   -5.1962    0.0000 N   0  0  0  0  0  0  0  0  0  0  0  0
    3.0000   -5.1962    0.0000 C   0  0  0  0  0  0  0  0  0  0  0  0
    0.7500   -3.8971    0.0000 C   0  0  0  0  0  0  0  0  0  0  0  0
    1.5000   -2.5981    0.0000 C   0  0  0  0  0  0  0  0  0  0  0  0
    0.7500   -1.2990    0.0000 C   0  0  0  0  0  0  0  0  0  0  0  0
    1.5000    0.0000    0.0000 C   0  0  0  0  0  0  0  0  0  0  0  0
    0.7500    1.2990    0.0000 C   0  0  0  0  0  0  0  0  0  0  0  0
   -0.7500    1.2990    0.0000 C   0  0  0  0  0  0  0  0  0  0  0  0
   -1.5000    0.0000    0.0000 C   0  0  0  0  0  0  0  0  0  0  0  0
   -0.7500   -1.2990    0.0000 C   0  0  0  0  0  0  0  0  0  0  0  0
   -1.5000   -2.5981    0.0000 C   0  0  0  0  0  0  0  0  0  0  0  0
   -3.0000   -2.5981    0.0000 C   0  0  0  0  0  0  0  0  0  0  0  0
   -3.7500   -1.2990    0.0000 C   0  0  0  0  0  0  0  0  0  0  0  0
   -5.2500   -1.2990    0.0000 C   0  0  0  0  0  0  0  0  0  0  0  0
   -6.0000   -2.5981    0.0000 C   0  0  0  0  0  0  0  0  0  0  0  0
   -5.2500   -3.8971    0.0000 C   0  0  0  0  0  0  0  0  0  0  0  0
   -6.0000   -5.1962    0.0000 C   0  0  0  0  0  0  0  0  0  0  0  0
   -6.7500   -6.4952    0.0000 F   0  0  0  0  0  0  0  0  0  0  0  0
   -7.2990   -4.4462    0.0000 F   0  0  0  0  0  0  0  0  0  0  0  0
   -4.7010   -5.9462    0.0000 F   0  0  0  0  0  0  0  0  0  0  0  0
   -3.7500   -3.8971    0.0000 C   0  0  0  0  0  0  0  0  0  0  0  0
   -0.7500   -3.8971    0.0000 C   0  0  0  0  0  0  0  0  0  0  0  0
    0.0000    2.2990    0.0000 Cl  0  0  0  0  0  0  0  0  0  0  0  0
  1  2  1  0
  2  3  1  0
  4  2  1  1
  4  5  1  0
  5  6  1  0
  6  7  2  0
  7  8  1  0
  8  9  2  0
  9 10  1  0
 10 11  2  0
 11 12  1  0
 12 13  1  6
 13 14  2  0
 14 15  1  0
 15 16  2  0
 16 17  1  0
 17 18  1  0
 18 19  1  0
 18 20  1  0
 18 21  1  0
 17 22  2  0
 12 23  1  0
 23  4  1  0
 11  6  1  0
 22 13  1  0
M  END
>  <assay_chembl_id>  (472) 
CHEMBL3406943

>  <assay_description>  (472) 
Displacement of [3H]Mesulergine from human 5-HT2B receptor expressed in HEK293 cells by scintillation counting analysis

>  <parent_molecule_chembl_id>  (472) 
CHEMBL3547133

>  <canonical_smiles>  (472) 
CN(C)[C@@H]1Cc2ccccc2[C@@H](c2cccc(C(F)(F)F)c2)C1.Cl

>  <standard_type>  (472) 
Ki

>  <standard_relation>  (472) 
=

>  <standard_value>  (472) 
60.0

>  <standard_units>  (472) 
nM

>  <target_pref_name>  (472) 
Serotonin 2b (5-HT2b) receptor

>  <target_chembl_id>  (472) 
CHEMBL1833

>  <target_organism>  (472) 
Homo sapiens

>  <pchembl_median>  (472) 
6.7

$$$$
CHEMBL3402672
     RDKit          2D

 24 25  0  0  0  0  0  0  0  0999 V2000
    0.7500   -6.4952    0.0000 C   0  0  0  0  0  0  0  0  0  0  0  0
    1.5000   -5.1962    0.0000 N   0  0  0  0  0  0  0  0  0  0  0  0
    3.0000   -5.1962    0.0000 C   0  0  0  0  0  0  0  0  0  0  0  0
    0.7500   -3.8971    0.0000 C   0  0  0  0  0  0  0  0  0  0  0  0
    1.5000   -2.5981    0.0000 C   0  0  0  0  0  0  0  0  0  0  0  0
    0.7500   -1.2990    0.0000 C   0  0  0  0  0  0  0  0  0  0  0  0
    1.5000    0.0000    0.0000 C   0  0  0  0  0  0  0  0  0  0  0  0
    0.7500    1.2990    0.0000 C   0  0  0  0  0  0  0  0  0  0  0  0
   -0.7500    1.2990    0.0000 C   0  0  0  0  0  0  0  0  0  0  0  0
   -1.5000    0.0000    0.0000 C   0  0  0  0  0  0  0  0  0  0  0  0
   -0.7500   -1.2990    0.0000 C   0  0  0  0  0  0  0  0  0  0  0  0
   -1.5000   -2.5981    0.0000 C   0  0  0  0  0  0  0  0  0  0  0  0
   -3.0000   -2.5981    0.0000 C   0  0  0  0  0  0  0  0  0  0  0  0
   -3.7500   -1.2990    0.0000 C   0  0  0  0  0  0  0  0  0  0  0  0
   -5.2500   -1.2990    0.0000 C   0  0  0  0  0  0  0  0  0  0  0  0
   -6.0000   -2.5981    0.0000 C   0  0  0  0  0  0  0  0  0  0  0  0
   -5.2500   -3.8971    0.0000 C   0  0  0  0  0  0  0  0  0  0  0  0
   -6.0000   -5.1962    0.0000 C   0  0  0  0  0  0  0  0  0  0  0  0
   -6.7500   -6.4952    0.0000 F   0  0  0  0  0  0  0  0  0  0  0  0
   -7.2990   -4.4462    0.0000 F   0  0  0  0  0  0  0  0  0  0  0  0
   -4.7010   -5.9462    0.0000 F   0  0  0  0  0  0  0  0  0  0  0  0
   -3.7500   -3.8971    0.0000 C   0  0  0  0  0  0  0  0  0  0  0  0
   -0.7500   -3.8971    0.0000 C   0  0  0  0  0  0  0  0  0  0  0  0
    0.0000    2.2990    0.0000 Cl  0  0  0  0  0  0  0  0  0  0  0  0
  1  2  1  0
  2  3  1  0
  4  2  1  6
  4  5  1  0
  5  6  1  0
  6  7  2  0
  7  8  1  0
  8  9  2  0
  9 10  1  0
 10 11  2  0
 11 12  1  0
 12 13  1  1
 13 14  2  0
 14 15  1  0
 15 16  2  0
 16 17  1  0
 17 18  1  0
 18 19  1  0
 18 20  1  0
 18 21  1  0
 17 22  2  0
 12 23  1  0
 23  4  1  0
 11  6  1  0
 22 13  1  0
M  END
>  <assay_chembl_id>  (473) 
CHEMBL3406943

>  <assay_description>  (473) 
Displacement of [3H]Mesulergine from human 5-HT2B receptor expressed in HEK293 cells by scintillation counting analysis

>  <parent_molecule_chembl_id>  (473) 
CHEMBL3547044

>  <canonical_smiles>  (473) 
CN(C)[C@H]1Cc2ccccc2[C@H](c2cccc(C(F)(F)F)c2)C1.Cl

>  <standard_type>  (473) 
Ki

>  <standard_relation>  (473) 
=

>  <standard_value>  (473) 
200.0

>  <standard_units>  (473) 
nM

>  <target_pref_name>  (473) 
Serotonin 2b (5-HT2b) receptor

>  <target_chembl_id>  (473) 
CHEMBL1833

>  <target_organism>  (473) 
Homo sapiens

>  <pchembl_median>  (473) 
7.5

$$$$
CHEMBL3402673
     RDKit          2D

 21 22  0  0  0  0  0  0  0  0999 V2000
    0.7500   -6.4952    0.0000 C   0  0  0  0  0  0  0  0  0  0  0  0
    1.5000   -5.1962    0.0000 N   0  0  0  0  0  0  0  0  0  0  0  0
    3.0000   -5.1962    0.0000 C   0  0  0  0  0  0  0  0  0  0  0  0
    0.7500   -3.8971    0.0000 C   0  0  0  0  0  0  0  0  0  0  0  0
    1.5000   -2.5981    0.0000 C   0  0  0  0  0  0  0  0  0  0  0  0
    0.7500   -1.2990    0.0000 C   0  0  0  0  0  0  0  0  0  0  0  0
    1.5000    0.0000    0.0000 C   0  0  0  0  0  0  0  0  0  0  0  0
    0.7500    1.2990    0.0000 C   0  0  0  0  0  0  0  0  0  0  0  0
   -0.7500    1.2990    0.0000 C   0  0  0  0  0  0  0  0  0  0  0  0
   -1.5000    0.0000    0.0000 C   0  0  0  0  0  0  0  0  0  0  0  0
   -0.7500   -1.2990    0.0000 C   0  0  0  0  0  0  0  0  0  0  0  0
   -1.5000   -2.5981    0.0000 C   0  0  0  0  0  0  0  0  0  0  0  0
   -3.0000   -2.5981    0.0000 C   0  0  0  0  0  0  0  0  0  0  0  0
   -3.7500   -1.2990    0.0000 C   0  0  0  0  0  0  0  0  0  0  0  0
   -5.2500   -1.2990    0.0000 C   0  0  0  0  0  0  0  0  0  0  0  0
   -6.0000   -2.5981    0.0000 C   0  0  0  0  0  0  0  0  0  0  0  0
   -5.2500   -3.8971    0.0000 C   0  0  0  0  0  0  0  0  0  0  0  0
   -6.0000   -5.1962    0.0000 Br  0  0  0  0  0  0  0  0  0  0  0  0
   -3.7500   -3.8971    0.0000 C   0  0  0  0  0  0  0  0  0  0  0  0
   -0.7500   -3.8971    0.0000 C   0  0  0  0  0  0  0  0  0  0  0  0
    0.0000    2.2990    0.0000 Cl  0  0  0  0  0  0  0  0  0  0  0  0
  1  2  1  0
  2  3  1  0
  4  2  1  1
  4  5  1  0
  5  6  1  0
  6  7  2  0
  7  8  1  0
  8  9  2  0
  9 10  1  0
 10 11  2  0
 11 12  1  0
 12 13  1  6
 13 14  2  0
 14 15  1  0
 15 16  2  0
 16 17  1  0
 17 18  1  0
 17 19  2  0
 12 20  1  0
 20  4  1  0
 11  6  1  0
 19 13  1  0
M  END
>  <assay_chembl_id>  (474) 
CHEMBL3406943

>  <assay_description>  (474) 
Displacement of [3H]Mesulergine from human 5-HT2B receptor expressed in HEK293 cells by scintillation counting analysis

>  <parent_molecule_chembl_id>  (474) 
CHEMBL3547134

>  <canonical_smiles>  (474) 
CN(C)[C@@H]1Cc2ccccc2[C@@H](c2cccc(Br)c2)C1.Cl

>  <standard_type>  (474) 
Ki

>  <standard_relation>  (474) 
=

>  <standard_value>  (474) 
8.0

>  <standard_units>  (474) 
nM

>  <target_pref_name>  (474) 
Serotonin 2b (5-HT2b) receptor

>  <target_chembl_id>  (474) 
CHEMBL1833

>  <target_organism>  (474) 
Homo sapiens

>  <pchembl_median>  (474) 
6.7

$$$$
CHEMBL464099
     RDKit          2D

 25 28  0  0  0  0  0  0  0  0999 V2000
    3.7500   -1.2990    0.0000 C   0  0  0  0  0  0  0  0  0  0  0  0
    3.0000    0.0000    0.0000 O   0  0  0  0  0  0  0  0  0  0  0  0
    1.5000    0.0000    0.0000 C   0  0  0  0  0  0  0  0  0  0  0  0
    0.7500   -1.2990    0.0000 C   0  0  0  0  0  0  0  0  0  0  0  0
   -0.7500   -1.2990    0.0000 C   0  0  0  0  0  0  0  0  0  0  0  0
   -1.5000    0.0000    0.0000 C   0  0  0  0  0  0  0  0  0  0  0  0
   -0.7500    1.2990    0.0000 C   0  0  0  0  0  0  0  0  0  0  0  0
    0.7500    1.2990    0.0000 C   0  0  0  0  0  0  0  0  0  0  0  0
    1.5000    2.5981    0.0000 O   0  0  0  0  0  0  0  0  0  0  0  0
   -3.0000    0.0000    0.0000 C   0  0  0  0  0  0  0  0  0  0  0  0
   -3.7500   -1.2990    0.0000 C   0  0  0  0  0  0  0  0  0  0  0  0
   -3.0000   -2.5981    0.0000 C   0  0  0  0  0  0  0  0  0  0  0  0
   -3.7500   -3.8971    0.0000 C   0  0  0  0  0  0  0  0  0  0  0  0
   -3.0000   -5.1962    0.0000 C   0  0  0  0  0  0  0  0  0  0  0  0
   -1.5000   -5.1962    0.0000 C   0  0  0  0  0  0  0  0  0  0  0  0
   -0.7500   -6.4952    0.0000 O   0  0  0  0  0  0  0  0  0  0  0  0
   -1.5000   -7.7942    0.0000 C   0  0  0  0  0  0  0  0  0  0  0  0
   -0.7500   -3.8971    0.0000 C   0  0  0  0  0  0  0  0  0  0  0  0
    0.7500   -3.8971    0.0000 O   0  0  0  0  0  0  0  0  0  0  0  0
    1.5000   -5.1962    0.0000 C   0  0  0  0  0  0  0  0  0  0  0  0
   -1.5000   -2.5981    0.0000 C   0  0  0  0  0  0  0  0  0  0  0  0
   -5.2500   -3.8971    0.0000 C   0  0  0  0  0  0  0  0  0  0  0  0
   -6.0000   -2.5981    0.0000 C   0  0  0  0  0  0  0  0  0  0  0  0
   -5.2500   -1.2990    0.0000 N   0  0  0  0  0  0  0  0  0  0  0  0
   -6.0000    0.0000    0.0000 C   0  0  0  0  0  0  0  0  0  0  0  0
  1  2  1  0
  2  3  1  0
  3  4  2  0
  4  5  1  0
  5  6  2  0
  6  7  1  0
  7  8  2  0
  8  9  1  0
  6 10  1  0
 11 10  1  1
 11 12  1  0
 12 13  2  0
 13 14  1  0
 14 15  2  0
 15 16  1  0
 16 17  1  0
 15 18  1  0
 18 19  1  0
 19 20  1  0
 18 21  2  0
 13 22  1  0
 22 23  1  0
 23 24  1  0
 24 25  1  0
  8  3  1  0
 24 11  1  0
 21  5  1  0
 21 12  1  0
M  END
>  <assay_chembl_id>  (475) 
CHEMBL3584691

>  <assay_description>  (475) 
Displacement of [3H]LSD from human recombinant 5-HT2B receptor expressed in HEK cell membranes by radioligand binding assay

>  <parent_molecule_chembl_id>  (475) 
CHEMBL464099

>  <canonical_smiles>  (475) 
COc1cc2c(cc1O)C[C@H]1c3c(cc(OC)c(OC)c3-2)CCN1C

>  <standard_type>  (475) 
Ki

>  <standard_relation>  (475) 
=

>  <standard_value>  (475) 
323.0

>  <standard_units>  (475) 
nM

>  <target_pref_name>  (475) 
Serotonin 2b (5-HT2b) receptor

>  <target_chembl_id>  (475) 
CHEMBL1833

>  <target_organism>  (475) 
Homo sapiens

>  <pchembl_median>  (475) 
7.2

$$$$
CHEMBL3593949
     RDKit          2D

 21 23  0  0  0  0  0  0  0  0999 V2000
   -3.0000   -2.5981    0.0000 O   0  0  0  0  0  0  0  0  0  0  0  0
   -1.5000   -2.5981    0.0000 C   0  0  0  0  0  0  0  0  0  0  0  0
   -0.7500   -3.8971    0.0000 C   0  0  0  0  0  0  0  0  0  0  0  0
    0.7500   -3.8971    0.0000 C   0  0  0  0  0  0  0  0  0  0  0  0
    1.5000   -5.1962    0.0000 C   0  0  0  0  0  0  0  0  0  0  0  0
    0.7500   -6.4952    0.0000 C   0  0  0  0  0  0  0  0  0  0  0  0
    1.5000   -7.7942    0.0000 C   0  0  0  0  0  0  0  0  0  0  0  0
    0.7500   -9.0933    0.0000 C   0  0  0  0  0  0  0  0  0  0  0  0
    1.5000  -10.3923    0.0000 C   0  0  0  0  0  0  0  0  0  0  0  0
    3.0000  -10.3923    0.0000 C   0  0  0  0  0  0  0  0  0  0  0  0
    3.7500   -9.0933    0.0000 C   0  0  0  0  0  0  0  0  0  0  0  0
    5.2500   -9.0933    0.0000 O   0  0  0  0  0  0  0  0  0  0  0  0
    3.0000   -7.7942    0.0000 C   0  0  0  0  0  0  0  0  0  0  0  0
    1.5000   -2.5981    0.0000 O   0  0  0  0  0  0  0  0  0  0  0  0
    0.7500   -1.2990    0.0000 C   0  0  0  0  0  0  0  0  0  0  0  0
    1.5000    0.0000    0.0000 C   0  0  0  0  0  0  0  0  0  0  0  0
    0.7500    1.2990    0.0000 C   0  0  0  0  0  0  0  0  0  0  0  0
   -0.7500    1.2990    0.0000 C   0  0  0  0  0  0  0  0  0  0  0  0
   -1.5000    0.0000    0.0000 C   0  0  0  0  0  0  0  0  0  0  0  0
   -3.0000    0.0000    0.0000 O   0  0  0  0  0  0  0  0  0  0  0  0
   -0.7500   -1.2990    0.0000 C   0  0  0  0  0  0  0  0  0  0  0  0
  1  2  2  0
  2  3  1  0
  3  4  2  0
  4  5  1  0
  5  6  1  0
  6  7  1  0
  7  8  2  0
  8  9  1  0
  9 10  2  0
 10 11  1  0
 11 12  1  0
 11 13  2  0
  4 14  1  0
 14 15  1  0
 15 16  2  0
 16 17  1  0
 17 18  2  0
 18 19  1  0
 19 20  1  0
 19 21  2  0
 21  2  1  0
 13  7  1  0
 21 15  1  0
M  END
>  <assay_chembl_id>  (476) 
CHEMBL3594621

>  <assay_description>  (476) 
Displacement of [3H]LSD from human 5HT2B receptor expressed in stable HEK cells membranes

>  <parent_molecule_chembl_id>  (476) 
CHEMBL3593949

>  <canonical_smiles>  (476) 
O=c1cc(CCc2cccc(O)c2)oc2cccc(O)c12

>  <standard_type>  (476) 
Ki

>  <standard_relation>  (476) 
=

>  <standard_value>  (476) 
1258.93

>  <standard_units>  (476) 
nM

>  <target_pref_name>  (476) 
Serotonin 2b (5-HT2b) receptor

>  <target_chembl_id>  (476) 
CHEMBL1833

>  <target_organism>  (476) 
Homo sapiens

>  <pchembl_median>  (476) 
8.28

$$$$
CHEMBL3593950
     RDKit          2D

 21 23  0  0  0  0  0  0  0  0999 V2000
   -3.0000   -2.5981    0.0000 O   0  0  0  0  0  0  0  0  0  0  0  0
   -1.5000   -2.5981    0.0000 C   0  0  0  0  0  0  0  0  0  0  0  0
   -0.7500   -3.8971    0.0000 C   0  0  0  0  0  0  0  0  0  0  0  0
    0.7500   -3.8971    0.0000 C   0  0  0  0  0  0  0  0  0  0  0  0
    1.5000   -5.1962    0.0000 C   0  0  0  0  0  0  0  0  0  0  0  0
    0.7500   -6.4952    0.0000 C   0  0  0  0  0  0  0  0  0  0  0  0
    1.5000   -7.7942    0.0000 C   0  0  0  0  0  0  0  0  0  0  0  0
    0.7500   -9.0933    0.0000 C   0  0  0  0  0  0  0  0  0  0  0  0
    1.5000  -10.3923    0.0000 C   0  0  0  0  0  0  0  0  0  0  0  0
    3.0000  -10.3923    0.0000 C   0  0  0  0  0  0  0  0  0  0  0  0
    3.7500  -11.6913    0.0000 O   0  0  0  0  0  0  0  0  0  0  0  0
    3.7500   -9.0933    0.0000 C   0  0  0  0  0  0  0  0  0  0  0  0
    3.0000   -7.7942    0.0000 C   0  0  0  0  0  0  0  0  0  0  0  0
    1.5000   -2.5981    0.0000 O   0  0  0  0  0  0  0  0  0  0  0  0
    0.7500   -1.2990    0.0000 C   0  0  0  0  0  0  0  0  0  0  0  0
    1.5000    0.0000    0.0000 C   0  0  0  0  0  0  0  0  0  0  0  0
    0.7500    1.2990    0.0000 C   0  0  0  0  0  0  0  0  0  0  0  0
   -0.7500    1.2990    0.0000 C   0  0  0  0  0  0  0  0  0  0  0  0
   -1.5000    0.0000    0.0000 C   0  0  0  0  0  0  0  0  0  0  0  0
   -3.0000    0.0000    0.0000 O   0  0  0  0  0  0  0  0  0  0  0  0
   -0.7500   -1.2990    0.0000 C   0  0  0  0  0  0  0  0  0  0  0  0
  1  2  2  0
  2  3  1  0
  3  4  2  0
  4  5  1  0
  5  6  1  0
  6  7  1  0
  7  8  2  0
  8  9  1  0
  9 10  2  0
 10 11  1  0
 10 12  1  0
 12 13  2  0
  4 14  1  0
 14 15  1  0
 15 16  2  0
 16 17  1  0
 17 18  2  0
 18 19  1  0
 19 20  1  0
 19 21  2  0
 21  2  1  0
 13  7  1  0
 21 15  1  0
M  END
>  <assay_chembl_id>  (477) 
CHEMBL3594621

>  <assay_description>  (477) 
Displacement of [3H]LSD from human 5HT2B receptor expressed in stable HEK cells membranes

>  <parent_molecule_chembl_id>  (477) 
CHEMBL3593950

>  <canonical_smiles>  (477) 
O=c1cc(CCc2ccc(O)cc2)oc2cccc(O)c12

>  <standard_type>  (477) 
Ki

>  <standard_relation>  (477) 
=

>  <standard_value>  (477) 
1000.0

>  <standard_units>  (477) 
nM

>  <target_pref_name>  (477) 
Serotonin 2b (5-HT2b) receptor

>  <target_chembl_id>  (477) 
CHEMBL1833

>  <target_organism>  (477) 
Homo sapiens

>  <pchembl_median>  (477) 
7.9

$$$$
CHEMBL3126302
     RDKit          2D

 19 21  0  0  0  0  0  0  0  0999 V2000
   -3.0000   -2.5981    0.0000 O   0  0  0  0  0  0  0  0  0  0  0  0
   -1.5000   -2.5981    0.0000 C   0  0  0  0  0  0  0  0  0  0  0  0
   -0.7500   -3.8971    0.0000 C   0  0  0  0  0  0  0  0  0  0  0  0
    0.7500   -3.8971    0.0000 C   0  0  0  0  0  0  0  0  0  0  0  0
    1.5000   -5.1962    0.0000 C   0  0  0  0  0  0  0  0  0  0  0  0
    0.7500   -6.4952    0.0000 C   0  0  0  0  0  0  0  0  0  0  0  0
    1.5000   -7.7942    0.0000 C   0  0  0  0  0  0  0  0  0  0  0  0
    2.9918   -7.9510    0.0000 C   0  0  0  0  0  0  0  0  0  0  0  0
    3.3037   -9.4182    0.0000 C   0  0  0  0  0  0  0  0  0  0  0  0
    2.0046  -10.1682    0.0000 C   0  0  0  0  0  0  0  0  0  0  0  0
    0.8899   -9.1645    0.0000 S   0  0  0  0  0  0  0  0  0  0  0  0
    1.5000   -2.5981    0.0000 O   0  0  0  0  0  0  0  0  0  0  0  0
    0.7500   -1.2990    0.0000 C   0  0  0  0  0  0  0  0  0  0  0  0
    1.5000    0.0000    0.0000 C   0  0  0  0  0  0  0  0  0  0  0  0
    0.7500    1.2990    0.0000 C   0  0  0  0  0  0  0  0  0  0  0  0
   -0.7500    1.2990    0.0000 C   0  0  0  0  0  0  0  0  0  0  0  0
   -1.5000    0.0000    0.0000 C   0  0  0  0  0  0  0  0  0  0  0  0
   -3.0000    0.0000    0.0000 O   0  0  0  0  0  0  0  0  0  0  0  0
   -0.7500   -1.2990    0.0000 C   0  0  0  0  0  0  0  0  0  0  0  0
  1  2  2  0
  2  3  1  0
  3  4  2  0
  4  5  1  0
  5  6  1  0
  6  7  1  0
  7  8  2  0
  8  9  1  0
  9 10  2  0
 10 11  1  0
  4 12  1  0
 12 13  1  0
 13 14  2  0
 14 15  1  0
 15 16  2  0
 16 17  1  0
 17 18  1  0
 17 19  2  0
 19  2  1  0
 11  7  1  0
 19 13  1  0
M  END
>  <assay_chembl_id>  (478) 
CHEMBL3594621

>  <assay_description>  (478) 
Displacement of [3H]LSD from human 5HT2B receptor expressed in stable HEK cells membranes

>  <parent_molecule_chembl_id>  (478) 
CHEMBL3126302

>  <canonical_smiles>  (478) 
O=c1cc(CCc2cccs2)oc2cccc(O)c12

>  <standard_type>  (478) 
Ki

>  <standard_relation>  (478) 
=

>  <standard_value>  (478) 
1000.0

>  <standard_units>  (478) 
nM

>  <target_pref_name>  (478) 
Serotonin 2b (5-HT2b) receptor

>  <target_chembl_id>  (478) 
CHEMBL1833

>  <target_organism>  (478) 
Homo sapiens

>  <pchembl_median>  (478) 
7.35

$$$$
CHEMBL3593951
     RDKit          2D

 19 21  0  0  0  0  0  0  0  0999 V2000
   -3.0000   -2.5981    0.0000 O   0  0  0  0  0  0  0  0  0  0  0  0
   -1.5000   -2.5981    0.0000 C   0  0  0  0  0  0  0  0  0  0  0  0
   -0.7500   -3.8971    0.0000 C   0  0  0  0  0  0  0  0  0  0  0  0
    0.7500   -3.8971    0.0000 C   0  0  0  0  0  0  0  0  0  0  0  0
    1.5000   -5.1962    0.0000 C   0  0  0  0  0  0  0  0  0  0  0  0
    0.7500   -6.4952    0.0000 C   0  0  0  0  0  0  0  0  0  0  0  0
    1.5000   -7.7942    0.0000 C   0  0  0  0  0  0  0  0  0  0  0  0
    2.9918   -7.9510    0.0000 C   0  0  0  0  0  0  0  0  0  0  0  0
    3.3037   -9.4182    0.0000 C   0  0  0  0  0  0  0  0  0  0  0  0
    2.0046  -10.1682    0.0000 C   0  0  0  0  0  0  0  0  0  0  0  0
    0.8899   -9.1645    0.0000 O   0  0  0  0  0  0  0  0  0  0  0  0
    1.5000   -2.5981    0.0000 O   0  0  0  0  0  0  0  0  0  0  0  0
    0.7500   -1.2990    0.0000 C   0  0  0  0  0  0  0  0  0  0  0  0
    1.5000    0.0000    0.0000 C   0  0  0  0  0  0  0  0  0  0  0  0
    0.7500    1.2990    0.0000 C   0  0  0  0  0  0  0  0  0  0  0  0
   -0.7500    1.2990    0.0000 C   0  0  0  0  0  0  0  0  0  0  0  0
   -1.5000    0.0000    0.0000 C   0  0  0  0  0  0  0  0  0  0  0  0
   -3.0000    0.0000    0.0000 O   0  0  0  0  0  0  0  0  0  0  0  0
   -0.7500   -1.2990    0.0000 C   0  0  0  0  0  0  0  0  0  0  0  0
  1  2  2  0
  2  3  1  0
  3  4  2  0
  4  5  1  0
  5  6  1  0
  6  7  1  0
  7  8  2  0
  8  9  1  0
  9 10  2  0
 10 11  1  0
  4 12  1  0
 12 13  1  0
 13 14  2  0
 14 15  1  0
 15 16  2  0
 16 17  1  0
 17 18  1  0
 17 19  2  0
 19  2  1  0
 11  7  1  0
 19 13  1  0
M  END
>  <assay_chembl_id>  (479) 
CHEMBL3594621

>  <assay_description>  (479) 
Displacement of [3H]LSD from human 5HT2B receptor expressed in stable HEK cells membranes

>  <parent_molecule_chembl_id>  (479) 
CHEMBL3593951

>  <canonical_smiles>  (479) 
O=c1cc(CCc2ccco2)oc2cccc(O)c12

>  <standard_type>  (479) 
Ki

>  <standard_relation>  (479) 
=

>  <standard_value>  (479) 
1995.26

>  <standard_units>  (479) 
nM

>  <target_pref_name>  (479) 
Serotonin 2b (5-HT2b) receptor

>  <target_chembl_id>  (479) 
CHEMBL1833

>  <target_organism>  (479) 
Homo sapiens

>  <pchembl_median>  (479) 
6.53

$$$$
CHEMBL3126299
     RDKit          2D

 21 23  0  0  0  0  0  0  0  0999 V2000
   -3.0000   -2.5981    0.0000 O   0  0  0  0  0  0  0  0  0  0  0  0
   -1.5000   -2.5981    0.0000 C   0  0  0  0  0  0  0  0  0  0  0  0
   -0.7500   -3.8971    0.0000 C   0  0  0  0  0  0  0  0  0  0  0  0
    0.7500   -3.8971    0.0000 C   0  0  0  0  0  0  0  0  0  0  0  0
    1.5000   -5.1962    0.0000 C   0  0  0  0  0  0  0  0  0  0  0  0
    0.7500   -6.4952    0.0000 C   0  0  0  0  0  0  0  0  0  0  0  0
    1.5000   -7.7942    0.0000 C   0  0  0  0  0  0  0  0  0  0  0  0
    0.7500   -9.0933    0.0000 C   0  0  0  0  0  0  0  0  0  0  0  0
   -0.7500   -9.0933    0.0000 C   0  0  0  0  0  0  0  0  0  0  0  0
   -1.5000  -10.3923    0.0000 C   0  0  0  0  0  0  0  0  0  0  0  0
   -0.7500  -11.6913    0.0000 C   0  0  0  0  0  0  0  0  0  0  0  0
    0.7500  -11.6913    0.0000 C   0  0  0  0  0  0  0  0  0  0  0  0
    1.5000  -10.3923    0.0000 C   0  0  0  0  0  0  0  0  0  0  0  0
    1.5000   -2.5981    0.0000 O   0  0  0  0  0  0  0  0  0  0  0  0
    0.7500   -1.2990    0.0000 C   0  0  0  0  0  0  0  0  0  0  0  0
    1.5000    0.0000    0.0000 C   0  0  0  0  0  0  0  0  0  0  0  0
    0.7500    1.2990    0.0000 C   0  0  0  0  0  0  0  0  0  0  0  0
   -0.7500    1.2990    0.0000 C   0  0  0  0  0  0  0  0  0  0  0  0
   -1.5000    0.0000    0.0000 C   0  0  0  0  0  0  0  0  0  0  0  0
   -3.0000    0.0000    0.0000 O   0  0  0  0  0  0  0  0  0  0  0  0
   -0.7500   -1.2990    0.0000 C   0  0  0  0  0  0  0  0  0  0  0  0
  1  2  2  0
  2  3  1  0
  3  4  2  0
  4  5  1  0
  5  6  1  0
  6  7  1  0
  7  8  1  0
  8  9  2  0
  9 10  1  0
 10 11  2  0
 11 12  1  0
 12 13  2  0
  4 14  1  0
 14 15  1  0
 15 16  2  0
 16 17  1  0
 17 18  2  0
 18 19  1  0
 19 20  1  0
 19 21  2  0
 21  2  1  0
 13  8  1  0
 21 15  1  0
M  END
>  <assay_chembl_id>  (480) 
CHEMBL3594621

>  <assay_description>  (480) 
Displacement of [3H]LSD from human 5HT2B receptor expressed in stable HEK cells membranes

>  <parent_molecule_chembl_id>  (480) 
CHEMBL3126299

>  <canonical_smiles>  (480) 
O=c1cc(CCCc2ccccc2)oc2cccc(O)c12

>  <standard_type>  (480) 
Ki

>  <standard_relation>  (480) 
=

>  <standard_value>  (480) 
251.19

>  <standard_units>  (480) 
nM

>  <target_pref_name>  (480) 
Serotonin 2b (5-HT2b) receptor

>  <target_chembl_id>  (480) 
CHEMBL1833

>  <target_organism>  (480) 
Homo sapiens

>  <pchembl_median>  (480) 
5.32

$$$$
CHEMBL3593952
     RDKit          2D

 21 23  0  0  0  0  0  0  0  0999 V2000
   -3.0000   -2.5981    0.0000 O   0  0  0  0  0  0  0  0  0  0  0  0
   -1.5000   -2.5981    0.0000 C   0  0  0  0  0  0  0  0  0  0  0  0
   -0.7500   -3.8971    0.0000 C   0  0  0  0  0  0  0  0  0  0  0  0
    0.7500   -3.8971    0.0000 C   0  0  0  0  0  0  0  0  0  0  0  0
    1.5000   -5.1962    0.0000 C   0  0  0  0  0  0  0  0  0  0  0  0
    0.7500   -6.4952    0.0000 O   0  0  0  0  0  0  0  0  0  0  0  0
    1.5000   -7.7942    0.0000 C   0  0  0  0  0  0  0  0  0  0  0  0
    0.7500   -9.0933    0.0000 C   0  0  0  0  0  0  0  0  0  0  0  0
   -0.7500   -9.0933    0.0000 C   0  0  0  0  0  0  0  0  0  0  0  0
   -1.5000  -10.3923    0.0000 C   0  0  0  0  0  0  0  0  0  0  0  0
   -0.7500  -11.6913    0.0000 C   0  0  0  0  0  0  0  0  0  0  0  0
    0.7500  -11.6913    0.0000 C   0  0  0  0  0  0  0  0  0  0  0  0
    1.5000  -10.3923    0.0000 C   0  0  0  0  0  0  0  0  0  0  0  0
    1.5000   -2.5981    0.0000 O   0  0  0  0  0  0  0  0  0  0  0  0
    0.7500   -1.2990    0.0000 C   0  0  0  0  0  0  0  0  0  0  0  0
    1.5000    0.0000    0.0000 C   0  0  0  0  0  0  0  0  0  0  0  0
    0.7500    1.2990    0.0000 C   0  0  0  0  0  0  0  0  0  0  0  0
   -0.7500    1.2990    0.0000 C   0  0  0  0  0  0  0  0  0  0  0  0
   -1.5000    0.0000    0.0000 C   0  0  0  0  0  0  0  0  0  0  0  0
   -3.0000    0.0000    0.0000 O   0  0  0  0  0  0  0  0  0  0  0  0
   -0.7500   -1.2990    0.0000 C   0  0  0  0  0  0  0  0  0  0  0  0
  1  2  2  0
  2  3  1  0
  3  4  2  0
  4  5  1  0
  5  6  1  0
  6  7  1  0
  7  8  1  0
  8  9  2  0
  9 10  1  0
 10 11  2  0
 11 12  1  0
 12 13  2  0
  4 14  1  0
 14 15  1  0
 15 16  2  0
 16 17  1  0
 17 18  2  0
 18 19  1  0
 19 20  1  0
 19 21  2  0
 21  2  1  0
 13  8  1  0
 21 15  1  0
M  END
>  <assay_chembl_id>  (481) 
CHEMBL3594621

>  <assay_description>  (481) 
Displacement of [3H]LSD from human 5HT2B receptor expressed in stable HEK cells membranes

>  <parent_molecule_chembl_id>  (481) 
CHEMBL3593952

>  <canonical_smiles>  (481) 
O=c1cc(COCc2ccccc2)oc2cccc(O)c12

>  <standard_type>  (481) 
Ki

>  <standard_relation>  (481) 
=

>  <standard_value>  (481) 
1584.89

>  <standard_units>  (481) 
nM

>  <target_pref_name>  (481) 
Serotonin 2b (5-HT2b) receptor

>  <target_chembl_id>  (481) 
CHEMBL1833

>  <target_organism>  (481) 
Homo sapiens

>  <pchembl_median>  (481) 
7.6

$$$$
CHEMBL3608450
     RDKit          2D

 31 36  0  0  0  0  0  0  0  0999 V2000
   -8.0325    5.3050    0.0000 C   0  0  0  0  0  0  0  0  0  0  0  0
   -6.9177    4.3013    0.0000 O   0  0  0  0  0  0  0  0  0  0  0  0
   -5.4912    4.7648    0.0000 C   0  0  0  0  0  0  0  0  0  0  0  0
   -5.1793    6.2320    0.0000 C   0  0  0  0  0  0  0  0  0  0  0  0
   -3.7527    6.6955    0.0000 C   0  0  0  0  0  0  0  0  0  0  0  0
   -2.6380    5.6918    0.0000 C   0  0  0  0  0  0  0  0  0  0  0  0
   -2.9499    4.2246    0.0000 C   0  0  0  0  0  0  0  0  0  0  0  0
   -4.3764    3.7611    0.0000 C   0  0  0  0  0  0  0  0  0  0  0  0
   -4.6883    2.2939    0.0000 O   0  0  0  0  0  0  0  0  0  0  0  0
   -6.1149    1.8303    0.0000 C   0  0  0  0  0  0  0  0  0  0  0  0
   -1.8351    3.2209    0.0000 C   0  0  0  0  0  0  0  0  0  0  0  0
   -2.1470    1.7537    0.0000 C   0  0  0  0  0  0  0  0  0  0  0  0
   -1.0323    0.7500    0.0000 C   0  0  0  0  0  0  0  0  0  0  0  0
    0.3943    1.2135    0.0000 C   0  0  0  0  0  0  0  0  0  0  0  0
    0.7062    2.6807    0.0000 C   0  0  0  0  0  0  0  0  0  0  0  0
   -0.4086    3.6844    0.0000 C   0  0  0  0  0  0  0  0  0  0  0  0
   -0.0967    5.1517    0.0000 C   0  0  0  0  0  0  0  0  0  0  0  0
   -1.2114    6.1554    0.0000 C   0  0  0  0  0  0  0  0  0  0  0  0
   -0.8995    7.6226    0.0000 N   0  0  0  0  0  0  0  0  0  0  0  0
    0.5271    8.0861    0.0000 C   0  0  0  0  0  0  0  0  0  0  0  0
   -2.0143    8.6263    0.0000 C   0  0  0  0  0  0  0  0  0  0  0  0
   -3.4408    8.1628    0.0000 C   0  0  0  0  0  0  0  0  0  0  0  0
   -4.5556    9.1664    0.0000 C   0  0  0  0  0  0  0  0  0  0  0  0
   -4.2437   10.6337    0.0000 C   0  0  0  0  0  0  0  0  0  0  0  0
   -5.3584   11.6374    0.0000 C   0  0  0  0  0  0  0  0  0  0  0  0
   -6.7850   11.1738    0.0000 C   0  0  0  0  0  0  0  0  0  0  0  0
   -7.0969    9.7066    0.0000 C   0  0  0  0  0  0  0  0  0  0  0  0
   -5.9821    8.7029    0.0000 C   0  0  0  0  0  0  0  0  0  0  0  0
    1.2760    0.0000    0.0000 O   0  0  0  0  0  0  0  0  0  0  0  0
    0.3943   -1.2135    0.0000 C   0  0  0  0  0  0  0  0  0  0  0  0
   -1.0323   -0.7500    0.0000 O   0  0  0  0  0  0  0  0  0  0  0  0
  1  2  1  0
  2  3  1  0
  3  4  2  0
  4  5  1  0
  5  6  2  0
  6  7  1  0
  7  8  2  0
  8  9  1  0
  9 10  1  0
  7 11  1  0
 11 12  2  0
 12 13  1  0
 13 14  2  0
 14 15  1  0
 15 16  2  0
 16 17  1  0
 17 18  1  0
 18 19  1  0
 19 20  1  0
 19 21  1  0
 21 22  1  0
 22 23  1  0
 23 24  2  0
 24 25  1  0
 25 26  2  0
 26 27  1  0
 27 28  2  0
 14 29  1  0
 29 30  1  0
 30 31  1  0
  8  3  1  0
 16 11  1  0
 28 23  1  0
 22  5  1  0
 18  6  1  0
 31 13  1  0
M  END
>  <assay_chembl_id>  (482) 
CHEMBL3610528

>  <assay_description>  (482) 
Displacement of [3H]LSD from 5HT2B receptor (unknown origin)

>  <parent_molecule_chembl_id>  (482) 
CHEMBL3608450

>  <canonical_smiles>  (482) 
COc1cc2c3c(c1OC)-c1cc4c(cc1CC3N(C)CC2c1ccccc1)OCO4

>  <standard_type>  (482) 
Ki

>  <standard_relation>  (482) 
=

>  <standard_value>  (482) 
96.0

>  <standard_units>  (482) 
nM

>  <target_pref_name>  (482) 
Serotonin 2b (5-HT2b) receptor

>  <target_chembl_id>  (482) 
CHEMBL1833

>  <target_organism>  (482) 
Homo sapiens

>  <pchembl_median>  (482) 
6.5

$$$$
CHEMBL3608451
     RDKit          2D

 32 37  0  0  0  0  0  0  0  0999 V2000
   -6.4268    0.3631    0.0000 C   0  0  0  0  0  0  0  0  0  0  0  0
   -6.1149    1.8303    0.0000 C   0  0  0  0  0  0  0  0  0  0  0  0
   -4.6883    2.2939    0.0000 O   0  0  0  0  0  0  0  0  0  0  0  0
   -4.3764    3.7611    0.0000 C   0  0  0  0  0  0  0  0  0  0  0  0
   -5.4912    4.7648    0.0000 C   0  0  0  0  0  0  0  0  0  0  0  0
   -6.9177    4.3013    0.0000 O   0  0  0  0  0  0  0  0  0  0  0  0
   -8.0325    5.3050    0.0000 C   0  0  0  0  0  0  0  0  0  0  0  0
   -5.1793    6.2320    0.0000 C   0  0  0  0  0  0  0  0  0  0  0  0
   -3.7527    6.6955    0.0000 C   0  0  0  0  0  0  0  0  0  0  0  0
   -2.6380    5.6918    0.0000 C   0  0  0  0  0  0  0  0  0  0  0  0
   -2.9499    4.2246    0.0000 C   0  0  0  0  0  0  0  0  0  0  0  0
   -1.8351    3.2209    0.0000 C   0  0  0  0  0  0  0  0  0  0  0  0
   -2.1470    1.7537    0.0000 C   0  0  0  0  0  0  0  0  0  0  0  0
   -1.0323    0.7500    0.0000 C   0  0  0  0  0  0  0  0  0  0  0  0
    0.3943    1.2135    0.0000 C   0  0  0  0  0  0  0  0  0  0  0  0
    0.7062    2.6807    0.0000 C   0  0  0  0  0  0  0  0  0  0  0  0
   -0.4086    3.6844    0.0000 C   0  0  0  0  0  0  0  0  0  0  0  0
   -0.0967    5.1517    0.0000 C   0  0  0  0  0  0  0  0  0  0  0  0
   -1.2114    6.1554    0.0000 C   0  0  0  0  0  0  0  0  0  0  0  0
   -0.8995    7.6226    0.0000 N   0  0  0  0  0  0  0  0  0  0  0  0
    0.5271    8.0861    0.0000 C   0  0  0  0  0  0  0  0  0  0  0  0
   -2.0143    8.6263    0.0000 C   0  0  0  0  0  0  0  0  0  0  0  0
   -3.4408    8.1628    0.0000 C   0  0  0  0  0  0  0  0  0  0  0  0
   -4.5556    9.1664    0.0000 C   0  0  0  0  0  0  0  0  0  0  0  0
   -4.2437   10.6337    0.0000 C   0  0  0  0  0  0  0  0  0  0  0  0
   -5.3584   11.6374    0.0000 C   0  0  0  0  0  0  0  0  0  0  0  0
   -6.7850   11.1738    0.0000 C   0  0  0  0  0  0  0  0  0  0  0  0
   -7.0969    9.7066    0.0000 C   0  0  0  0  0  0  0  0  0  0  0  0
   -5.9821    8.7029    0.0000 C   0  0  0  0  0  0  0  0  0  0  0  0
    1.2760    0.0000    0.0000 O   0  0  0  0  0  0  0  0  0  0  0  0
    0.3943   -1.2135    0.0000 C   0  0  0  0  0  0  0  0  0  0  0  0
   -1.0323   -0.7500    0.0000 O   0  0  0  0  0  0  0  0  0  0  0  0
  1  2  1  0
  2  3  1  0
  3  4  1  0
  4  5  2  0
  5  6  1  0
  6  7  1  0
  5  8  1  0
  8  9  2  0
  9 10  1  0
 10 11  2  0
 11 12  1  0
 12 13  2  0
 13 14  1  0
 14 15  2  0
 15 16  1  0
 16 17  2  0
 17 18  1  0
 18 19  1  0
 19 20  1  0
 20 21  1  0
 20 22  1  0
 22 23  1  0
 23 24  1  0
 24 25  2  0
 25 26  1  0
 26 27  2  0
 27 28  1  0
 28 29  2  0
 15 30  1  0
 30 31  1  0
 31 32  1  0
 11  4  1  0
 17 12  1  0
 29 24  1  0
 23  9  1  0
 19 10  1  0
 32 14  1  0
M  END
>  <assay_chembl_id>  (483) 
CHEMBL3610528

>  <assay_description>  (483) 
Displacement of [3H]LSD from 5HT2B receptor (unknown origin)

>  <parent_molecule_chembl_id>  (483) 
CHEMBL3608451

>  <canonical_smiles>  (483) 
CCOc1c(OC)cc2c3c1-c1cc4c(cc1CC3N(C)CC2c1ccccc1)OCO4

>  <standard_type>  (483) 
Ki

>  <standard_relation>  (483) 
=

>  <standard_value>  (483) 
209.0

>  <standard_units>  (483) 
nM

>  <target_pref_name>  (483) 
Serotonin 2b (5-HT2b) receptor

>  <target_chembl_id>  (483) 
CHEMBL1833

>  <target_organism>  (483) 
Homo sapiens

>  <pchembl_median>  (483) 
6.5

$$$$
CHEMBL3609140
     RDKit          2D

 33 38  0  0  0  0  0  0  0  0999 V2000
   -7.8533   -0.1004    0.0000 C   0  0  0  0  0  0  0  0  0  0  0  0
   -6.4268    0.3631    0.0000 C   0  0  0  0  0  0  0  0  0  0  0  0
   -6.1149    1.8303    0.0000 C   0  0  0  0  0  0  0  0  0  0  0  0
   -4.6883    2.2939    0.0000 O   0  0  0  0  0  0  0  0  0  0  0  0
   -4.3764    3.7611    0.0000 C   0  0  0  0  0  0  0  0  0  0  0  0
   -5.4912    4.7648    0.0000 C   0  0  0  0  0  0  0  0  0  0  0  0
   -6.9177    4.3013    0.0000 O   0  0  0  0  0  0  0  0  0  0  0  0
   -8.0325    5.3050    0.0000 C   0  0  0  0  0  0  0  0  0  0  0  0
   -5.1793    6.2320    0.0000 C   0  0  0  0  0  0  0  0  0  0  0  0
   -3.7527    6.6955    0.0000 C   0  0  0  0  0  0  0  0  0  0  0  0
   -2.6380    5.6918    0.0000 C   0  0  0  0  0  0  0  0  0  0  0  0
   -2.9499    4.2246    0.0000 C   0  0  0  0  0  0  0  0  0  0  0  0
   -1.8351    3.2209    0.0000 C   0  0  0  0  0  0  0  0  0  0  0  0
   -2.1470    1.7537    0.0000 C   0  0  0  0  0  0  0  0  0  0  0  0
   -1.0323    0.7500    0.0000 C   0  0  0  0  0  0  0  0  0  0  0  0
    0.3943    1.2135    0.0000 C   0  0  0  0  0  0  0  0  0  0  0  0
    0.7062    2.6807    0.0000 C   0  0  0  0  0  0  0  0  0  0  0  0
   -0.4086    3.6844    0.0000 C   0  0  0  0  0  0  0  0  0  0  0  0
   -0.0967    5.1517    0.0000 C   0  0  0  0  0  0  0  0  0  0  0  0
   -1.2114    6.1554    0.0000 C   0  0  0  0  0  0  0  0  0  0  0  0
   -0.8995    7.6226    0.0000 N   0  0  0  0  0  0  0  0  0  0  0  0
    0.5271    8.0861    0.0000 C   0  0  0  0  0  0  0  0  0  0  0  0
   -2.0143    8.6263    0.0000 C   0  0  0  0  0  0  0  0  0  0  0  0
   -3.4408    8.1628    0.0000 C   0  0  0  0  0  0  0  0  0  0  0  0
   -4.5556    9.1664    0.0000 C   0  0  0  0  0  0  0  0  0  0  0  0
   -4.2437   10.6337    0.0000 C   0  0  0  0  0  0  0  0  0  0  0  0
   -5.3584   11.6374    0.0000 C   0  0  0  0  0  0  0  0  0  0  0  0
   -6.7850   11.1738    0.0000 C   0  0  0  0  0  0  0  0  0  0  0  0
   -7.0969    9.7066    0.0000 C   0  0  0  0  0  0  0  0  0  0  0  0
   -5.9821    8.7029    0.0000 C   0  0  0  0  0  0  0  0  0  0  0  0
    1.2760    0.0000    0.0000 O   0  0  0  0  0  0  0  0  0  0  0  0
    0.3943   -1.2135    0.0000 C   0  0  0  0  0  0  0  0  0  0  0  0
   -1.0323   -0.7500    0.0000 O   0  0  0  0  0  0  0  0  0  0  0  0
  1  2  1  0
  2  3  1  0
  3  4  1  0
  4  5  1  0
  5  6  2  0
  6  7  1  0
  7  8  1  0
  6  9  1  0
  9 10  2  0
 10 11  1  0
 11 12  2  0
 12 13  1  0
 13 14  2  0
 14 15  1  0
 15 16  2  0
 16 17  1  0
 17 18  2  0
 18 19  1  0
 19 20  1  0
 20 21  1  0
 21 22  1  0
 21 23  1  0
 23 24  1  0
 24 25  1  0
 25 26  2  0
 26 27  1  0
 27 28  2  0
 28 29  1  0
 29 30  2  0
 16 31  1  0
 31 32  1  0
 32 33  1  0
 12  5  1  0
 18 13  1  0
 30 25  1  0
 24 10  1  0
 20 11  1  0
 33 15  1  0
M  END
>  <assay_chembl_id>  (484) 
CHEMBL3610528

>  <assay_description>  (484) 
Displacement of [3H]LSD from 5HT2B receptor (unknown origin)

>  <parent_molecule_chembl_id>  (484) 
CHEMBL3609140

>  <canonical_smiles>  (484) 
CCCOc1c(OC)cc2c3c1-c1cc4c(cc1CC3N(C)CC2c1ccccc1)OCO4

>  <standard_type>  (484) 
Ki

>  <standard_relation>  (484) 
=

>  <standard_value>  (484) 
307.0

>  <standard_units>  (484) 
nM

>  <target_pref_name>  (484) 
Serotonin 2b (5-HT2b) receptor

>  <target_chembl_id>  (484) 
CHEMBL1833

>  <target_organism>  (484) 
Homo sapiens

>  <pchembl_median>  (484) 
6.9

$$$$
CHEMBL3609141
     RDKit          2D

 34 39  0  0  0  0  0  0  0  0999 V2000
   -8.1652   -1.5676    0.0000 C   0  0  0  0  0  0  0  0  0  0  0  0
   -7.8533   -0.1004    0.0000 C   0  0  0  0  0  0  0  0  0  0  0  0
   -6.4268    0.3631    0.0000 C   0  0  0  0  0  0  0  0  0  0  0  0
   -6.1149    1.8303    0.0000 C   0  0  0  0  0  0  0  0  0  0  0  0
   -4.6883    2.2939    0.0000 O   0  0  0  0  0  0  0  0  0  0  0  0
   -4.3764    3.7611    0.0000 C   0  0  0  0  0  0  0  0  0  0  0  0
   -5.4912    4.7648    0.0000 C   0  0  0  0  0  0  0  0  0  0  0  0
   -6.9177    4.3013    0.0000 O   0  0  0  0  0  0  0  0  0  0  0  0
   -8.0325    5.3050    0.0000 C   0  0  0  0  0  0  0  0  0  0  0  0
   -5.1793    6.2320    0.0000 C   0  0  0  0  0  0  0  0  0  0  0  0
   -3.7527    6.6955    0.0000 C   0  0  0  0  0  0  0  0  0  0  0  0
   -2.6380    5.6918    0.0000 C   0  0  0  0  0  0  0  0  0  0  0  0
   -2.9499    4.2246    0.0000 C   0  0  0  0  0  0  0  0  0  0  0  0
   -1.8351    3.2209    0.0000 C   0  0  0  0  0  0  0  0  0  0  0  0
   -2.1470    1.7537    0.0000 C   0  0  0  0  0  0  0  0  0  0  0  0
   -1.0323    0.7500    0.0000 C   0  0  0  0  0  0  0  0  0  0  0  0
    0.3943    1.2135    0.0000 C   0  0  0  0  0  0  0  0  0  0  0  0
    0.7062    2.6807    0.0000 C   0  0  0  0  0  0  0  0  0  0  0  0
   -0.4086    3.6844    0.0000 C   0  0  0  0  0  0  0  0  0  0  0  0
   -0.0967    5.1517    0.0000 C   0  0  0  0  0  0  0  0  0  0  0  0
   -1.2114    6.1554    0.0000 C   0  0  0  0  0  0  0  0  0  0  0  0
   -0.8995    7.6226    0.0000 N   0  0  0  0  0  0  0  0  0  0  0  0
    0.5271    8.0861    0.0000 C   0  0  0  0  0  0  0  0  0  0  0  0
   -2.0143    8.6263    0.0000 C   0  0  0  0  0  0  0  0  0  0  0  0
   -3.4408    8.1628    0.0000 C   0  0  0  0  0  0  0  0  0  0  0  0
   -4.5556    9.1664    0.0000 C   0  0  0  0  0  0  0  0  0  0  0  0
   -4.2437   10.6337    0.0000 C   0  0  0  0  0  0  0  0  0  0  0  0
   -5.3584   11.6374    0.0000 C   0  0  0  0  0  0  0  0  0  0  0  0
   -6.7850   11.1738    0.0000 C   0  0  0  0  0  0  0  0  0  0  0  0
   -7.0969    9.7066    0.0000 C   0  0  0  0  0  0  0  0  0  0  0  0
   -5.9821    8.7029    0.0000 C   0  0  0  0  0  0  0  0  0  0  0  0
    1.2760    0.0000    0.0000 O   0  0  0  0  0  0  0  0  0  0  0  0
    0.3943   -1.2135    0.0000 C   0  0  0  0  0  0  0  0  0  0  0  0
   -1.0323   -0.7500    0.0000 O   0  0  0  0  0  0  0  0  0  0  0  0
  1  2  1  0
  2  3  1  0
  3  4  1  0
  4  5  1  0
  5  6  1  0
  6  7  2  0
  7  8  1  0
  8  9  1  0
  7 10  1  0
 10 11  2  0
 11 12  1  0
 12 13  2  0
 13 14  1  0
 14 15  2  0
 15 16  1  0
 16 17  2  0
 17 18  1  0
 18 19  2  0
 19 20  1  0
 20 21  1  0
 21 22  1  0
 22 23  1  0
 22 24  1  0
 24 25  1  0
 25 26  1  0
 26 27  2  0
 27 28  1  0
 28 29  2  0
 29 30  1  0
 30 31  2  0
 17 32  1  0
 32 33  1  0
 33 34  1  0
 13  6  1  0
 19 14  1  0
 31 26  1  0
 25 11  1  0
 21 12  1  0
 34 16  1  0
M  END
>  <assay_chembl_id>  (485) 
CHEMBL3610528

>  <assay_description>  (485) 
Displacement of [3H]LSD from 5HT2B receptor (unknown origin)

>  <parent_molecule_chembl_id>  (485) 
CHEMBL3609141

>  <canonical_smiles>  (485) 
CCCCOc1c(OC)cc2c3c1-c1cc4c(cc1CC3N(C)CC2c1ccccc1)OCO4

>  <standard_type>  (485) 
Ki

>  <standard_relation>  (485) 
=

>  <standard_value>  (485) 
601.0

>  <standard_units>  (485) 
nM

>  <target_pref_name>  (485) 
Serotonin 2b (5-HT2b) receptor

>  <target_chembl_id>  (485) 
CHEMBL1833

>  <target_organism>  (485) 
Homo sapiens

>  <pchembl_median>  (485) 
6.3

$$$$
CHEMBL3609142
     RDKit          2D

 36 41  0  0  0  0  0  0  0  0999 V2000
   -9.9037   -3.4984    0.0000 C   0  0  0  0  0  0  0  0  0  0  0  0
   -9.5918   -2.0312    0.0000 C   0  0  0  0  0  0  0  0  0  0  0  0
   -8.1652   -1.5676    0.0000 C   0  0  0  0  0  0  0  0  0  0  0  0
   -7.8533   -0.1004    0.0000 C   0  0  0  0  0  0  0  0  0  0  0  0
   -6.4268    0.3631    0.0000 C   0  0  0  0  0  0  0  0  0  0  0  0
   -6.1149    1.8303    0.0000 C   0  0  0  0  0  0  0  0  0  0  0  0
   -4.6883    2.2939    0.0000 O   0  0  0  0  0  0  0  0  0  0  0  0
   -4.3764    3.7611    0.0000 C   0  0  0  0  0  0  0  0  0  0  0  0
   -5.4912    4.7648    0.0000 C   0  0  0  0  0  0  0  0  0  0  0  0
   -6.9177    4.3013    0.0000 O   0  0  0  0  0  0  0  0  0  0  0  0
   -8.0325    5.3050    0.0000 C   0  0  0  0  0  0  0  0  0  0  0  0
   -5.1793    6.2320    0.0000 C   0  0  0  0  0  0  0  0  0  0  0  0
   -3.7527    6.6955    0.0000 C   0  0  0  0  0  0  0  0  0  0  0  0
   -2.6380    5.6918    0.0000 C   0  0  0  0  0  0  0  0  0  0  0  0
   -2.9499    4.2246    0.0000 C   0  0  0  0  0  0  0  0  0  0  0  0
   -1.8351    3.2209    0.0000 C   0  0  0  0  0  0  0  0  0  0  0  0
   -2.1470    1.7537    0.0000 C   0  0  0  0  0  0  0  0  0  0  0  0
   -1.0323    0.7500    0.0000 C   0  0  0  0  0  0  0  0  0  0  0  0
    0.3943    1.2135    0.0000 C   0  0  0  0  0  0  0  0  0  0  0  0
    0.7062    2.6807    0.0000 C   0  0  0  0  0  0  0  0  0  0  0  0
   -0.4086    3.6844    0.0000 C   0  0  0  0  0  0  0  0  0  0  0  0
   -0.0967    5.1517    0.0000 C   0  0  0  0  0  0  0  0  0  0  0  0
   -1.2114    6.1554    0.0000 C   0  0  0  0  0  0  0  0  0  0  0  0
   -0.8995    7.6226    0.0000 N   0  0  0  0  0  0  0  0  0  0  0  0
    0.5271    8.0861    0.0000 C   0  0  0  0  0  0  0  0  0  0  0  0
   -2.0143    8.6263    0.0000 C   0  0  0  0  0  0  0  0  0  0  0  0
   -3.4408    8.1628    0.0000 C   0  0  0  0  0  0  0  0  0  0  0  0
   -4.5556    9.1664    0.0000 C   0  0  0  0  0  0  0  0  0  0  0  0
   -4.2437   10.6337    0.0000 C   0  0  0  0  0  0  0  0  0  0  0  0
   -5.3584   11.6374    0.0000 C   0  0  0  0  0  0  0  0  0  0  0  0
   -6.7850   11.1738    0.0000 C   0  0  0  0  0  0  0  0  0  0  0  0
   -7.0969    9.7066    0.0000 C   0  0  0  0  0  0  0  0  0  0  0  0
   -5.9821    8.7029    0.0000 C   0  0  0  0  0  0  0  0  0  0  0  0
    1.2760    0.0000    0.0000 O   0  0  0  0  0  0  0  0  0  0  0  0
    0.3943   -1.2135    0.0000 C   0  0  0  0  0  0  0  0  0  0  0  0
   -1.0323   -0.7500    0.0000 O   0  0  0  0  0  0  0  0  0  0  0  0
  1  2  1  0
  2  3  1  0
  3  4  1  0
  4  5  1  0
  5  6  1  0
  6  7  1  0
  7  8  1  0
  8  9  2  0
  9 10  1  0
 10 11  1  0
  9 12  1  0
 12 13  2  0
 13 14  1  0
 14 15  2  0
 15 16  1  0
 16 17  2  0
 17 18  1  0
 18 19  2  0
 19 20  1  0
 20 21  2  0
 21 22  1  0
 22 23  1  0
 23 24  1  0
 24 25  1  0
 24 26  1  0
 26 27  1  0
 27 28  1  0
 28 29  2  0
 29 30  1  0
 30 31  2  0
 31 32  1  0
 32 33  2  0
 19 34  1  0
 34 35  1  0
 35 36  1  0
 15  8  1  0
 21 16  1  0
 33 28  1  0
 27 13  1  0
 23 14  1  0
 36 18  1  0
M  END
>  <assay_chembl_id>  (486) 
CHEMBL3610528

>  <assay_description>  (486) 
Displacement of [3H]LSD from 5HT2B receptor (unknown origin)

>  <parent_molecule_chembl_id>  (486) 
CHEMBL3609142

>  <canonical_smiles>  (486) 
CCCCCCOc1c(OC)cc2c3c1-c1cc4c(cc1CC3N(C)CC2c1ccccc1)OCO4

>  <standard_type>  (486) 
Ki

>  <standard_relation>  (486) 
=

>  <standard_value>  (486) 
663.0

>  <standard_units>  (486) 
nM

>  <target_pref_name>  (486) 
Serotonin 2b (5-HT2b) receptor

>  <target_chembl_id>  (486) 
CHEMBL1833

>  <target_organism>  (486) 
Homo sapiens

>  <pchembl_median>  (486) 
6.17

$$$$
CHEMBL3609143
     RDKit          2D

 34 40  0  0  0  0  0  0  0  0999 V2000
   -8.0325    5.3050    0.0000 C   0  0  0  0  0  0  0  0  0  0  0  0
   -6.9177    4.3013    0.0000 O   0  0  0  0  0  0  0  0  0  0  0  0
   -5.4912    4.7648    0.0000 C   0  0  0  0  0  0  0  0  0  0  0  0
   -5.1793    6.2320    0.0000 C   0  0  0  0  0  0  0  0  0  0  0  0
   -3.7527    6.6955    0.0000 C   0  0  0  0  0  0  0  0  0  0  0  0
   -2.6380    5.6918    0.0000 C   0  0  0  0  0  0  0  0  0  0  0  0
   -2.9499    4.2246    0.0000 C   0  0  0  0  0  0  0  0  0  0  0  0
   -4.3764    3.7611    0.0000 C   0  0  0  0  0  0  0  0  0  0  0  0
   -4.6883    2.2939    0.0000 O   0  0  0  0  0  0  0  0  0  0  0  0
   -6.1149    1.8303    0.0000 C   0  0  0  0  0  0  0  0  0  0  0  0
   -6.4268    0.3631    0.0000 C   0  0  0  0  0  0  0  0  0  0  0  0
   -5.9632   -1.0635    0.0000 C   0  0  0  0  0  0  0  0  0  0  0  0
   -7.4305   -0.7516    0.0000 C   0  0  0  0  0  0  0  0  0  0  0  0
   -1.8351    3.2209    0.0000 C   0  0  0  0  0  0  0  0  0  0  0  0
   -2.1470    1.7537    0.0000 C   0  0  0  0  0  0  0  0  0  0  0  0
   -1.0323    0.7500    0.0000 C   0  0  0  0  0  0  0  0  0  0  0  0
    0.3943    1.2135    0.0000 C   0  0  0  0  0  0  0  0  0  0  0  0
    0.7062    2.6807    0.0000 C   0  0  0  0  0  0  0  0  0  0  0  0
   -0.4086    3.6844    0.0000 C   0  0  0  0  0  0  0  0  0  0  0  0
   -0.0967    5.1517    0.0000 C   0  0  0  0  0  0  0  0  0  0  0  0
   -1.2114    6.1554    0.0000 C   0  0  0  0  0  0  0  0  0  0  0  0
   -0.8995    7.6226    0.0000 N   0  0  0  0  0  0  0  0  0  0  0  0
    0.5271    8.0861    0.0000 C   0  0  0  0  0  0  0  0  0  0  0  0
   -2.0143    8.6263    0.0000 C   0  0  0  0  0  0  0  0  0  0  0  0
   -3.4408    8.1628    0.0000 C   0  0  0  0  0  0  0  0  0  0  0  0
   -4.5556    9.1664    0.0000 C   0  0  0  0  0  0  0  0  0  0  0  0
   -4.2437   10.6337    0.0000 C   0  0  0  0  0  0  0  0  0  0  0  0
   -5.3584   11.6374    0.0000 C   0  0  0  0  0  0  0  0  0  0  0  0
   -6.7850   11.1738    0.0000 C   0  0  0  0  0  0  0  0  0  0  0  0
   -7.0969    9.7066    0.0000 C   0  0  0  0  0  0  0  0  0  0  0  0
   -5.9821    8.7029    0.0000 C   0  0  0  0  0  0  0  0  0  0  0  0
    1.2760    0.0000    0.0000 O   0  0  0  0  0  0  0  0  0  0  0  0
    0.3943   -1.2135    0.0000 C   0  0  0  0  0  0  0  0  0  0  0  0
   -1.0323   -0.7500    0.0000 O   0  0  0  0  0  0  0  0  0  0  0  0
  1  2  1  0
  2  3  1  0
  3  4  2  0
  4  5  1  0
  5  6  2  0
  6  7  1  0
  7  8  2  0
  8  9  1  0
  9 10  1  0
 10 11  1  0
 11 12  1  0
 12 13  1  0
  7 14  1  0
 14 15  2  0
 15 16  1  0
 16 17  2  0
 17 18  1  0
 18 19  2  0
 19 20  1  0
 20 21  1  0
 21 22  1  0
 22 23  1  0
 22 24  1  0
 24 25  1  0
 25 26  1  0
 26 27  2  0
 27 28  1  0
 28 29  2  0
 29 30  1  0
 30 31  2  0
 17 32  1  0
 32 33  1  0
 33 34  1  0
  8  3  1  0
 13 11  1  0
 19 14  1  0
 31 26  1  0
 25  5  1  0
 21  6  1  0
 34 16  1  0
M  END
>  <assay_chembl_id>  (487) 
CHEMBL3610528

>  <assay_description>  (487) 
Displacement of [3H]LSD from 5HT2B receptor (unknown origin)

>  <parent_molecule_chembl_id>  (487) 
CHEMBL3609143

>  <canonical_smiles>  (487) 
COc1cc2c3c(c1OCC1CC1)-c1cc4c(cc1CC3N(C)CC2c1ccccc1)OCO4

>  <standard_type>  (487) 
Ki

>  <standard_relation>  (487) 
=

>  <standard_value>  (487) 
299.0

>  <standard_units>  (487) 
nM

>  <target_pref_name>  (487) 
Serotonin 2b (5-HT2b) receptor

>  <target_chembl_id>  (487) 
CHEMBL1833

>  <target_organism>  (487) 
Homo sapiens

>  <pchembl_median>  (487) 
8.105

$$$$
CHEMBL3609144
     RDKit          2D

 33 38  0  0  0  0  0  0  0  0999 V2000
   -7.8533   -0.1004    0.0000 C   0  0  0  0  0  0  0  0  0  0  0  0
   -6.4268    0.3631    0.0000 C   0  0  0  0  0  0  0  0  0  0  0  0
   -6.1149    1.8303    0.0000 C   0  0  0  0  0  0  0  0  0  0  0  0
   -4.6883    2.2939    0.0000 O   0  0  0  0  0  0  0  0  0  0  0  0
   -4.3764    3.7611    0.0000 C   0  0  0  0  0  0  0  0  0  0  0  0
   -5.4912    4.7648    0.0000 C   0  0  0  0  0  0  0  0  0  0  0  0
   -6.9177    4.3013    0.0000 O   0  0  0  0  0  0  0  0  0  0  0  0
   -8.0325    5.3050    0.0000 C   0  0  0  0  0  0  0  0  0  0  0  0
   -5.1793    6.2320    0.0000 C   0  0  0  0  0  0  0  0  0  0  0  0
   -3.7527    6.6955    0.0000 C   0  0  0  0  0  0  0  0  0  0  0  0
   -2.6380    5.6918    0.0000 C   0  0  0  0  0  0  0  0  0  0  0  0
   -2.9499    4.2246    0.0000 C   0  0  0  0  0  0  0  0  0  0  0  0
   -1.8351    3.2209    0.0000 C   0  0  0  0  0  0  0  0  0  0  0  0
   -2.1470    1.7537    0.0000 C   0  0  0  0  0  0  0  0  0  0  0  0
   -1.0323    0.7500    0.0000 C   0  0  0  0  0  0  0  0  0  0  0  0
    0.3943    1.2135    0.0000 C   0  0  0  0  0  0  0  0  0  0  0  0
    0.7062    2.6807    0.0000 C   0  0  0  0  0  0  0  0  0  0  0  0
   -0.4086    3.6844    0.0000 C   0  0  0  0  0  0  0  0  0  0  0  0
   -0.0967    5.1517    0.0000 C   0  0  0  0  0  0  0  0  0  0  0  0
   -1.2114    6.1554    0.0000 C   0  0  0  0  0  0  0  0  0  0  0  0
   -0.8995    7.6226    0.0000 N   0  0  0  0  0  0  0  0  0  0  0  0
    0.5271    8.0861    0.0000 C   0  0  0  0  0  0  0  0  0  0  0  0
   -2.0143    8.6263    0.0000 C   0  0  0  0  0  0  0  0  0  0  0  0
   -3.4408    8.1628    0.0000 C   0  0  0  0  0  0  0  0  0  0  0  0
   -4.5556    9.1664    0.0000 C   0  0  0  0  0  0  0  0  0  0  0  0
   -4.2437   10.6337    0.0000 C   0  0  0  0  0  0  0  0  0  0  0  0
   -5.3584   11.6374    0.0000 C   0  0  0  0  0  0  0  0  0  0  0  0
   -6.7850   11.1738    0.0000 C   0  0  0  0  0  0  0  0  0  0  0  0
   -7.0969    9.7066    0.0000 C   0  0  0  0  0  0  0  0  0  0  0  0
   -5.9821    8.7029    0.0000 C   0  0  0  0  0  0  0  0  0  0  0  0
    1.2760    0.0000    0.0000 O   0  0  0  0  0  0  0  0  0  0  0  0
    0.3943   -1.2135    0.0000 C   0  0  0  0  0  0  0  0  0  0  0  0
   -1.0323   -0.7500    0.0000 O   0  0  0  0  0  0  0  0  0  0  0  0
  1  2  2  0
  2  3  1  0
  3  4  1  0
  4  5  1  0
  5  6  2  0
  6  7  1  0
  7  8  1  0
  6  9  1  0
  9 10  2  0
 10 11  1  0
 11 12  2  0
 12 13  1  0
 13 14  2  0
 14 15  1  0
 15 16  2  0
 16 17  1  0
 17 18  2  0
 18 19  1  0
 19 20  1  0
 20 21  1  0
 21 22  1  0
 21 23  1  0
 23 24  1  0
 24 25  1  0
 25 26  2  0
 26 27  1  0
 27 28  2  0
 28 29  1  0
 29 30  2  0
 16 31  1  0
 31 32  1  0
 32 33  1  0
 12  5  1  0
 18 13  1  0
 30 25  1  0
 24 10  1  0
 20 11  1  0
 33 15  1  0
M  END
>  <assay_chembl_id>  (488) 
CHEMBL3610528

>  <assay_description>  (488) 
Displacement of [3H]LSD from 5HT2B receptor (unknown origin)

>  <parent_molecule_chembl_id>  (488) 
CHEMBL3609144

>  <canonical_smiles>  (488) 
C=CCOc1c(OC)cc2c3c1-c1cc4c(cc1CC3N(C)CC2c1ccccc1)OCO4

>  <standard_type>  (488) 
Ki

>  <standard_relation>  (488) 
=

>  <standard_value>  (488) 
416.0

>  <standard_units>  (488) 
nM

>  <target_pref_name>  (488) 
Serotonin 2b (5-HT2b) receptor

>  <target_chembl_id>  (488) 
CHEMBL1833

>  <target_organism>  (488) 
Homo sapiens

>  <pchembl_median>  (488) 
6.9

$$$$
CHEMBL3609146
     RDKit          2D

 30 35  0  0  0  0  0  0  0  0999 V2000
   -8.0325    5.3050    0.0000 C   0  0  0  0  0  0  0  0  0  0  0  0
   -6.9177    4.3013    0.0000 O   0  0  0  0  0  0  0  0  0  0  0  0
   -5.4912    4.7648    0.0000 C   0  0  0  0  0  0  0  0  0  0  0  0
   -5.1793    6.2320    0.0000 C   0  0  0  0  0  0  0  0  0  0  0  0
   -3.7527    6.6955    0.0000 C   0  0  0  0  0  0  0  0  0  0  0  0
   -2.6380    5.6918    0.0000 C   0  0  0  0  0  0  0  0  0  0  0  0
   -2.9499    4.2246    0.0000 C   0  0  0  0  0  0  0  0  0  0  0  0
   -4.3764    3.7611    0.0000 C   0  0  0  0  0  0  0  0  0  0  0  0
   -4.6883    2.2939    0.0000 O   0  0  0  0  0  0  0  0  0  0  0  0
   -1.8351    3.2209    0.0000 C   0  0  0  0  0  0  0  0  0  0  0  0
   -2.1470    1.7537    0.0000 C   0  0  0  0  0  0  0  0  0  0  0  0
   -1.0323    0.7500    0.0000 C   0  0  0  0  0  0  0  0  0  0  0  0
    0.3943    1.2135    0.0000 C   0  0  0  0  0  0  0  0  0  0  0  0
    0.7062    2.6807    0.0000 C   0  0  0  0  0  0  0  0  0  0  0  0
   -0.4086    3.6844    0.0000 C   0  0  0  0  0  0  0  0  0  0  0  0
   -0.0967    5.1517    0.0000 C   0  0  0  0  0  0  0  0  0  0  0  0
   -1.2114    6.1554    0.0000 C   0  0  0  0  0  0  0  0  0  0  0  0
   -0.8995    7.6226    0.0000 N   0  0  0  0  0  0  0  0  0  0  0  0
    0.5271    8.0861    0.0000 C   0  0  0  0  0  0  0  0  0  0  0  0
   -2.0143    8.6263    0.0000 C   0  0  0  0  0  0  0  0  0  0  0  0
   -3.4408    8.1628    0.0000 C   0  0  0  0  0  0  0  0  0  0  0  0
   -4.5556    9.1664    0.0000 C   0  0  0  0  0  0  0  0  0  0  0  0
   -4.2437   10.6337    0.0000 C   0  0  0  0  0  0  0  0  0  0  0  0
   -5.3584   11.6374    0.0000 C   0  0  0  0  0  0  0  0  0  0  0  0
   -6.7850   11.1738    0.0000 C   0  0  0  0  0  0  0  0  0  0  0  0
   -7.0969    9.7066    0.0000 C   0  0  0  0  0  0  0  0  0  0  0  0
   -5.9821    8.7029    0.0000 C   0  0  0  0  0  0  0  0  0  0  0  0
    1.2760    0.0000    0.0000 O   0  0  0  0  0  0  0  0  0  0  0  0
    0.3943   -1.2135    0.0000 C   0  0  0  0  0  0  0  0  0  0  0  0
   -1.0323   -0.7500    0.0000 O   0  0  0  0  0  0  0  0  0  0  0  0
  1  2  1  0
  2  3  1  0
  3  4  2  0
  4  5  1  0
  5  6  2  0
  6  7  1  0
  7  8  2  0
  8  9  1  0
  7 10  1  0
 10 11  2  0
 11 12  1  0
 12 13  2  0
 13 14  1  0
 14 15  2  0
 15 16  1  0
 16 17  1  0
 17 18  1  0
 18 19  1  0
 18 20  1  0
 20 21  1  0
 21 22  1  0
 22 23  2  0
 23 24  1  0
 24 25  2  0
 25 26  1  0
 26 27  2  0
 13 28  1  0
 28 29  1  0
 29 30  1  0
  8  3  1  0
 15 10  1  0
 27 22  1  0
 21  5  1  0
 17  6  1  0
 30 12  1  0
M  END
>  <assay_chembl_id>  (489) 
CHEMBL3610528

>  <assay_description>  (489) 
Displacement of [3H]LSD from 5HT2B receptor (unknown origin)

>  <parent_molecule_chembl_id>  (489) 
CHEMBL3609146

>  <canonical_smiles>  (489) 
COc1cc2c3c(c1O)-c1cc4c(cc1CC3N(C)CC2c1ccccc1)OCO4

>  <standard_type>  (489) 
Ki

>  <standard_relation>  (489) 
=

>  <standard_value>  (489) 
715.0

>  <standard_units>  (489) 
nM

>  <target_pref_name>  (489) 
Serotonin 2b (5-HT2b) receptor

>  <target_chembl_id>  (489) 
CHEMBL1833

>  <target_organism>  (489) 
Homo sapiens

>  <pchembl_median>  (489) 
6.8

$$$$
CHEMBL3609147
     RDKit          2D

 32 37  0  0  0  0  0  0  0  0999 V2000
   -6.2940    7.2357    0.0000 C   0  0  0  0  0  0  0  0  0  0  0  0
   -5.1793    6.2320    0.0000 C   0  0  0  0  0  0  0  0  0  0  0  0
   -3.7527    6.6955    0.0000 N   0  0  0  0  0  0  0  0  0  0  0  0
   -3.4408    8.1628    0.0000 C   0  0  0  0  0  0  0  0  0  0  0  0
   -2.0143    8.6263    0.0000 C   0  0  0  0  0  0  0  0  0  0  0  0
   -1.7024   10.0935    0.0000 C   0  0  0  0  0  0  0  0  0  0  0  0
   -0.2758   10.5570    0.0000 C   0  0  0  0  0  0  0  0  0  0  0  0
    0.0361   12.0242    0.0000 C   0  0  0  0  0  0  0  0  0  0  0  0
   -1.0786   13.0279    0.0000 C   0  0  0  0  0  0  0  0  0  0  0  0
   -2.5052   12.5644    0.0000 C   0  0  0  0  0  0  0  0  0  0  0  0
   -2.8171   11.0972    0.0000 C   0  0  0  0  0  0  0  0  0  0  0  0
   -0.8995    7.6226    0.0000 C   0  0  0  0  0  0  0  0  0  0  0  0
    0.5271    8.0861    0.0000 C   0  0  0  0  0  0  0  0  0  0  0  0
    1.6418    7.0824    0.0000 C   0  0  0  0  0  0  0  0  0  0  0  0
    3.0684    7.5459    0.0000 O   0  0  0  0  0  0  0  0  0  0  0  0
    4.1831    6.5422    0.0000 C   0  0  0  0  0  0  0  0  0  0  0  0
    1.3299    5.6152    0.0000 C   0  0  0  0  0  0  0  0  0  0  0  0
    2.4446    4.6115    0.0000 O   0  0  0  0  0  0  0  0  0  0  0  0
    3.8712    5.0750    0.0000 C   0  0  0  0  0  0  0  0  0  0  0  0
   -0.0967    5.1517    0.0000 C   0  0  0  0  0  0  0  0  0  0  0  0
   -1.2114    6.1554    0.0000 C   0  0  0  0  0  0  0  0  0  0  0  0
   -2.6380    5.6918    0.0000 C   0  0  0  0  0  0  0  0  0  0  0  0
   -2.9499    4.2246    0.0000 C   0  0  0  0  0  0  0  0  0  0  0  0
   -1.8351    3.2209    0.0000 C   0  0  0  0  0  0  0  0  0  0  0  0
   -2.1470    1.7537    0.0000 C   0  0  0  0  0  0  0  0  0  0  0  0
   -1.0323    0.7500    0.0000 C   0  0  0  0  0  0  0  0  0  0  0  0
    0.3943    1.2135    0.0000 C   0  0  0  0  0  0  0  0  0  0  0  0
    0.7062    2.6807    0.0000 C   0  0  0  0  0  0  0  0  0  0  0  0
   -0.4086    3.6844    0.0000 C   0  0  0  0  0  0  0  0  0  0  0  0
    1.2760    0.0000    0.0000 O   0  0  0  0  0  0  0  0  0  0  0  0
    0.3943   -1.2135    0.0000 C   0  0  0  0  0  0  0  0  0  0  0  0
   -1.0323   -0.7500    0.0000 O   0  0  0  0  0  0  0  0  0  0  0  0
  1  2  1  0
  2  3  1  0
  3  4  1  0
  4  5  1  0
  5  6  1  0
  6  7  2  0
  7  8  1  0
  8  9  2  0
  9 10  1  0
 10 11  2  0
  5 12  1  0
 12 13  2  0
 13 14  1  0
 14 15  1  0
 15 16  1  0
 14 17  2  0
 17 18  1  0
 18 19  1  0
 17 20  1  0
 20 21  2  0
 21 22  1  0
 22 23  1  0
 23 24  1  0
 24 25  2  0
 25 26  1  0
 26 27  2  0
 27 28  1  0
 28 29  2  0
 27 30  1  0
 30 31  1  0
 31 32  1  0
 22  3  1  0
 29 24  1  0
 11  6  1  0
 21 12  1  0
 32 26  1  0
 29 20  1  0
M  END
>  <assay_chembl_id>  (490) 
CHEMBL3610528

>  <assay_description>  (490) 
Displacement of [3H]LSD from 5HT2B receptor (unknown origin)

>  <parent_molecule_chembl_id>  (490) 
CHEMBL3609147

>  <canonical_smiles>  (490) 
CCN1CC(c2ccccc2)c2cc(OC)c(OC)c3c2C1Cc1cc2c(cc1-3)OCO2

>  <standard_type>  (490) 
Ki

>  <standard_relation>  (490) 
=

>  <standard_value>  (490) 
419.0

>  <standard_units>  (490) 
nM

>  <target_pref_name>  (490) 
Serotonin 2b (5-HT2b) receptor

>  <target_chembl_id>  (490) 
CHEMBL1833

>  <target_organism>  (490) 
Homo sapiens

>  <pchembl_median>  (490) 
8.0

$$$$
CHEMBL3609148
     RDKit          2D

 34 40  0  0  0  0  0  0  0  0999 V2000
   -8.0325    5.3050    0.0000 C   0  0  0  0  0  0  0  0  0  0  0  0
   -6.9177    4.3013    0.0000 O   0  0  0  0  0  0  0  0  0  0  0  0
   -5.4912    4.7648    0.0000 C   0  0  0  0  0  0  0  0  0  0  0  0
   -5.1793    6.2320    0.0000 C   0  0  0  0  0  0  0  0  0  0  0  0
   -3.7527    6.6955    0.0000 C   0  0  0  0  0  0  0  0  0  0  0  0
   -2.6380    5.6918    0.0000 C   0  0  0  0  0  0  0  0  0  0  0  0
   -2.9499    4.2246    0.0000 C   0  0  0  0  0  0  0  0  0  0  0  0
   -4.3764    3.7611    0.0000 C   0  0  0  0  0  0  0  0  0  0  0  0
   -4.6883    2.2939    0.0000 O   0  0  0  0  0  0  0  0  0  0  0  0
   -6.1149    1.8303    0.0000 C   0  0  0  0  0  0  0  0  0  0  0  0
   -1.8351    3.2209    0.0000 C   0  0  0  0  0  0  0  0  0  0  0  0
   -2.1470    1.7537    0.0000 C   0  0  0  0  0  0  0  0  0  0  0  0
   -1.0323    0.7500    0.0000 C   0  0  0  0  0  0  0  0  0  0  0  0
    0.3943    1.2135    0.0000 C   0  0  0  0  0  0  0  0  0  0  0  0
    0.7062    2.6807    0.0000 C   0  0  0  0  0  0  0  0  0  0  0  0
   -0.4086    3.6844    0.0000 C   0  0  0  0  0  0  0  0  0  0  0  0
   -0.0967    5.1517    0.0000 C   0  0  0  0  0  0  0  0  0  0  0  0
   -1.2114    6.1554    0.0000 C   0  0  0  0  0  0  0  0  0  0  0  0
   -0.8995    7.6226    0.0000 N   0  0  0  0  0  0  0  0  0  0  0  0
    0.5271    8.0861    0.0000 C   0  0  0  0  0  0  0  0  0  0  0  0
    0.8389    9.5533    0.0000 C   0  0  0  0  0  0  0  0  0  0  0  0
    0.3754   10.9799    0.0000 C   0  0  0  0  0  0  0  0  0  0  0  0
    1.8426   10.6680    0.0000 C   0  0  0  0  0  0  0  0  0  0  0  0
   -2.0143    8.6263    0.0000 C   0  0  0  0  0  0  0  0  0  0  0  0
   -3.4408    8.1628    0.0000 C   0  0  0  0  0  0  0  0  0  0  0  0
   -4.5556    9.1664    0.0000 C   0  0  0  0  0  0  0  0  0  0  0  0
   -4.2437   10.6337    0.0000 C   0  0  0  0  0  0  0  0  0  0  0  0
   -5.3584   11.6374    0.0000 C   0  0  0  0  0  0  0  0  0  0  0  0
   -6.7850   11.1738    0.0000 C   0  0  0  0  0  0  0  0  0  0  0  0
   -7.0969    9.7066    0.0000 C   0  0  0  0  0  0  0  0  0  0  0  0
   -5.9821    8.7029    0.0000 C   0  0  0  0  0  0  0  0  0  0  0  0
    1.2760    0.0000    0.0000 O   0  0  0  0  0  0  0  0  0  0  0  0
    0.3943   -1.2135    0.0000 C   0  0  0  0  0  0  0  0  0  0  0  0
   -1.0323   -0.7500    0.0000 O   0  0  0  0  0  0  0  0  0  0  0  0
  1  2  1  0
  2  3  1  0
  3  4  2  0
  4  5  1  0
  5  6  2  0
  6  7  1  0
  7  8  2  0
  8  9  1  0
  9 10  1  0
  7 11  1  0
 11 12  2  0
 12 13  1  0
 13 14  2  0
 14 15  1  0
 15 16  2  0
 16 17  1  0
 17 18  1  0
 18 19  1  0
 19 20  1  0
 20 21  1  0
 21 22  1  0
 22 23  1  0
 19 24  1  0
 24 25  1  0
 25 26  1  0
 26 27  2  0
 27 28  1  0
 28 29  2  0
 29 30  1  0
 30 31  2  0
 14 32  1  0
 32 33  1  0
 33 34  1  0
  8  3  1  0
 16 11  1  0
 23 21  1  0
 31 26  1  0
 25  5  1  0
 18  6  1  0
 34 13  1  0
M  END
>  <assay_chembl_id>  (491) 
CHEMBL3610528

>  <assay_description>  (491) 
Displacement of [3H]LSD from 5HT2B receptor (unknown origin)

>  <parent_molecule_chembl_id>  (491) 
CHEMBL3609148

>  <canonical_smiles>  (491) 
COc1cc2c3c(c1OC)-c1cc4c(cc1CC3N(CC1CC1)CC2c1ccccc1)OCO4

>  <standard_type>  (491) 
Ki

>  <standard_relation>  (491) 
=

>  <standard_value>  (491) 
1429.0

>  <standard_units>  (491) 
nM

>  <target_pref_name>  (491) 
Serotonin 2b (5-HT2b) receptor

>  <target_chembl_id>  (491) 
CHEMBL1833

>  <target_organism>  (491) 
Homo sapiens

>  <pchembl_median>  (491) 
7.14

$$$$
CHEMBL467094
     RDKit          2D

 25 29  0  0  0  0  0  0  0  0999 V2000
   -8.0325    5.3050    0.0000 C   0  0  0  0  0  0  0  0  0  0  0  0
   -6.9177    4.3013    0.0000 O   0  0  0  0  0  0  0  0  0  0  0  0
   -5.4912    4.7648    0.0000 C   0  0  0  0  0  0  0  0  0  0  0  0
   -5.1793    6.2320    0.0000 C   0  0  0  0  0  0  0  0  0  0  0  0
   -3.7527    6.6955    0.0000 C   0  0  0  0  0  0  0  0  0  0  0  0
   -2.6380    5.6918    0.0000 C   0  0  0  0  0  0  0  0  0  0  0  0
   -2.9499    4.2246    0.0000 C   0  0  0  0  0  0  0  0  0  0  0  0
   -4.3764    3.7611    0.0000 C   0  0  0  0  0  0  0  0  0  0  0  0
   -4.6883    2.2939    0.0000 O   0  0  0  0  0  0  0  0  0  0  0  0
   -6.1149    1.8303    0.0000 C   0  0  0  0  0  0  0  0  0  0  0  0
   -1.8351    3.2209    0.0000 C   0  0  0  0  0  0  0  0  0  0  0  0
   -2.1470    1.7537    0.0000 C   0  0  0  0  0  0  0  0  0  0  0  0
   -1.0323    0.7500    0.0000 C   0  0  0  0  0  0  0  0  0  0  0  0
    0.3943    1.2135    0.0000 C   0  0  0  0  0  0  0  0  0  0  0  0
    0.7062    2.6807    0.0000 C   0  0  0  0  0  0  0  0  0  0  0  0
   -0.4086    3.6844    0.0000 C   0  0  0  0  0  0  0  0  0  0  0  0
   -0.0967    5.1517    0.0000 C   0  0  0  0  0  0  0  0  0  0  0  0
   -1.2114    6.1554    0.0000 C   0  0  0  0  0  0  0  0  0  0  0  0
   -0.8995    7.6226    0.0000 N   0  0  0  0  0  0  0  0  0  0  0  0
    0.5271    8.0861    0.0000 C   0  0  0  0  0  0  0  0  0  0  0  0
   -2.0143    8.6263    0.0000 C   0  0  0  0  0  0  0  0  0  0  0  0
   -3.4408    8.1628    0.0000 C   0  0  0  0  0  0  0  0  0  0  0  0
    1.2760    0.0000    0.0000 O   0  0  0  0  0  0  0  0  0  0  0  0
    0.3943   -1.2135    0.0000 C   0  0  0  0  0  0  0  0  0  0  0  0
   -1.0323   -0.7500    0.0000 O   0  0  0  0  0  0  0  0  0  0  0  0
  1  2  1  0
  2  3  1  0
  3  4  2  0
  4  5  1  0
  5  6  2  0
  6  7  1  0
  7  8  2  0
  8  9  1  0
  9 10  1  0
  7 11  1  0
 11 12  2  0
 12 13  1  0
 13 14  2  0
 14 15  1  0
 15 16  2  0
 16 17  1  0
 17 18  1  0
 18 19  1  0
 19 20  1  0
 19 21  1  0
 21 22  1  0
 14 23  1  0
 23 24  1  0
 24 25  1  0
  8  3  1  0
 16 11  1  0
 22  5  1  0
 18  6  1  0
 25 13  1  0
M  END
>  <assay_chembl_id>  (492) 
CHEMBL3610528

>  <assay_description>  (492) 
Displacement of [3H]LSD from 5HT2B receptor (unknown origin)

>  <parent_molecule_chembl_id>  (492) 
CHEMBL467094

>  <canonical_smiles>  (492) 
COc1cc2c3c(c1OC)-c1cc4c(cc1CC3N(C)CC2)OCO4

>  <standard_type>  (492) 
Ki

>  <standard_relation>  (492) 
=

>  <standard_value>  (492) 
543.0

>  <standard_units>  (492) 
nM

>  <target_pref_name>  (492) 
Serotonin 2b (5-HT2b) receptor

>  <target_chembl_id>  (492) 
CHEMBL1833

>  <target_organism>  (492) 
Homo sapiens

>  <pchembl_median>  (492) 
6.9

$$$$
CHEMBL3734894
     RDKit          2D

 34 37  0  0  0  0  0  0  0  0999 V2000
    8.2837   13.3382    0.0000 C   0  0  0  0  0  0  0  0  0  0  0  0
    6.8571   12.8747    0.0000 O   0  0  0  0  0  0  0  0  0  0  0  0
    6.5453   11.4074    0.0000 C   0  0  0  0  0  0  0  0  0  0  0  0
    7.6600   10.4037    0.0000 C   0  0  0  0  0  0  0  0  0  0  0  0
    7.3481    8.9365    0.0000 C   0  0  0  0  0  0  0  0  0  0  0  0
    5.9215    8.4730    0.0000 C   0  0  0  0  0  0  0  0  0  0  0  0
    4.8068    9.4767    0.0000 C   0  0  0  0  0  0  0  0  0  0  0  0
    3.3802    9.0132    0.0000 C   0  0  0  0  0  0  0  0  0  0  0  0
    3.0684    7.5459    0.0000 C   0  0  0  0  0  0  0  0  0  0  0  0
    1.6418    7.0824    0.0000 C   0  0  0  0  0  0  0  0  0  0  0  0
    1.3299    5.6152    0.0000 N   0  0  0  0  0  0  0  0  0  0  0  0
    2.4446    4.6115    0.0000 C   0  0  0  0  0  0  0  0  0  0  0  0
    3.8712    5.0750    0.0000 C   0  0  0  0  0  0  0  0  0  0  0  0
    4.9859    4.0713    0.0000 C   0  0  0  0  0  0  0  0  0  0  0  0
    4.6741    2.6041    0.0000 C   0  0  0  0  0  0  0  0  0  0  0  0
    5.7888    1.6004    0.0000 C   0  0  0  0  0  0  0  0  0  0  0  0
    7.2154    2.0639    0.0000 C   0  0  0  0  0  0  0  0  0  0  0  0
    8.3301    1.0602    0.0000 O   0  0  0  0  0  0  0  0  0  0  0  0
    8.0182   -0.4070    0.0000 C   0  0  0  0  0  0  0  0  0  0  0  0
    7.5272    3.5312    0.0000 C   0  0  0  0  0  0  0  0  0  0  0  0
    8.9538    3.9947    0.0000 O   0  0  0  0  0  0  0  0  0  0  0  0
    9.2657    5.4619    0.0000 C   0  0  0  0  0  0  0  0  0  0  0  0
    6.4125    4.5348    0.0000 C   0  0  0  0  0  0  0  0  0  0  0  0
   -0.0967    5.1517    0.0000 C   0  0  0  0  0  0  0  0  0  0  0  0
   -0.4086    3.6844    0.0000 C   0  0  0  0  0  0  0  0  0  0  0  0
   -1.8351    3.2209    0.0000 C   0  0  0  0  0  0  0  0  0  0  0  0
   -2.1470    1.7537    0.0000 C   0  0  0  0  0  0  0  0  0  0  0  0
   -1.0323    0.7500    0.0000 C   0  0  0  0  0  0  0  0  0  0  0  0
    0.3943    1.2135    0.0000 C   0  0  0  0  0  0  0  0  0  0  0  0
    0.7062    2.6807    0.0000 C   0  0  0  0  0  0  0  0  0  0  0  0
    1.2760    0.0000    0.0000 O   0  0  0  0  0  0  0  0  0  0  0  0
    0.3943   -1.2135    0.0000 C   0  0  0  0  0  0  0  0  0  0  0  0
   -1.0323   -0.7500    0.0000 O   0  0  0  0  0  0  0  0  0  0  0  0
    5.1187   10.9439    0.0000 C   0  0  0  0  0  0  0  0  0  0  0  0
  1  2  1  0
  2  3  1  0
  3  4  2  0
  4  5  1  0
  5  6  2  0
  6  7  1  0
  7  8  1  0
  8  9  1  0
  9 10  1  0
 10 11  1  0
 11 12  1  0
 12 13  1  0
 13 14  1  0
 14 15  2  0
 15 16  1  0
 16 17  2  0
 17 18  1  0
 18 19  1  0
 17 20  1  0
 20 21  1  0
 21 22  1  0
 20 23  2  0
 11 24  1  0
 24 25  1  0
 25 26  2  0
 26 27  1  0
 27 28  2  0
 28 29  1  0
 29 30  2  0
 29 31  1  0
 31 32  1  0
 32 33  1  0
  7 34  2  0
 34  3  1  0
 23 14  1  0
 30 25  1  0
 33 28  1  0
M  END
>  <assay_chembl_id>  (493) 
CHEMBL3736695

>  <assay_description>  (493) 
Displacement of [3H]LSD from human recombinant 5-HT2B receptor stably expressed in HEK cell membrane after 90 mins by scintillation counting method

>  <parent_molecule_chembl_id>  (493) 
CHEMBL3734894

>  <canonical_smiles>  (493) 
COc1cccc(CCCN(CCc2ccc(OC)c(OC)c2)Cc2ccc3c(c2)OCO3)c1

>  <standard_type>  (493) 
Ki

>  <standard_relation>  (493) 
=

>  <standard_value>  (493) 
59.0

>  <standard_units>  (493) 
nM

>  <target_pref_name>  (493) 
Serotonin 2b (5-HT2b) receptor

>  <target_chembl_id>  (493) 
CHEMBL1833

>  <target_organism>  (493) 
Homo sapiens

>  <pchembl_median>  (493) 
6.32

$$$$
CHEMBL3735643
     RDKit          2D

 38 41  0  0  0  0  0  0  0  0999 V2000
    8.0182   -0.4070    0.0000 C   0  0  0  0  0  0  0  0  0  0  0  0
    8.3301    1.0602    0.0000 O   0  0  0  0  0  0  0  0  0  0  0  0
    7.2154    2.0639    0.0000 C   0  0  0  0  0  0  0  0  0  0  0  0
    5.7888    1.6004    0.0000 C   0  0  0  0  0  0  0  0  0  0  0  0
    4.6741    2.6041    0.0000 C   0  0  0  0  0  0  0  0  0  0  0  0
    4.9859    4.0713    0.0000 C   0  0  0  0  0  0  0  0  0  0  0  0
    3.8712    5.0750    0.0000 C   0  0  0  0  0  0  0  0  0  0  0  0
    2.4446    4.6115    0.0000 C   0  0  0  0  0  0  0  0  0  0  0  0
    1.3299    5.6152    0.0000 N   0  0  0  0  0  0  0  0  0  0  0  0
    1.6418    7.0824    0.0000 C   0  0  0  0  0  0  0  0  0  0  0  0
    3.0684    7.5459    0.0000 C   0  0  0  0  0  0  0  0  0  0  0  0
    3.3802    9.0132    0.0000 C   0  0  0  0  0  0  0  0  0  0  0  0
    4.8068    9.4767    0.0000 C   0  0  0  0  0  0  0  0  0  0  0  0
    5.9215    8.4730    0.0000 C   0  0  0  0  0  0  0  0  0  0  0  0
    7.3481    8.9365    0.0000 C   0  0  0  0  0  0  0  0  0  0  0  0
    8.4628    7.9328    0.0000 O   0  0  0  0  0  0  0  0  0  0  0  0
    8.1510    6.4656    0.0000 C   0  0  0  0  0  0  0  0  0  0  0  0
    7.6600   10.4037    0.0000 C   0  0  0  0  0  0  0  0  0  0  0  0
    9.0866   10.8673    0.0000 O   0  0  0  0  0  0  0  0  0  0  0  0
    9.3984   12.3345    0.0000 C   0  0  0  0  0  0  0  0  0  0  0  0
    6.5453   11.4074    0.0000 C   0  0  0  0  0  0  0  0  0  0  0  0
    6.8571   12.8747    0.0000 O   0  0  0  0  0  0  0  0  0  0  0  0
    5.7424   13.8783    0.0000 C   0  0  0  0  0  0  0  0  0  0  0  0
    5.1187   10.9439    0.0000 C   0  0  0  0  0  0  0  0  0  0  0  0
   -0.0967    5.1517    0.0000 C   0  0  0  0  0  0  0  0  0  0  0  0
   -0.4086    3.6844    0.0000 C   0  0  0  0  0  0  0  0  0  0  0  0
   -1.8351    3.2209    0.0000 C   0  0  0  0  0  0  0  0  0  0  0  0
   -2.1470    1.7537    0.0000 C   0  0  0  0  0  0  0  0  0  0  0  0
   -1.0323    0.7500    0.0000 C   0  0  0  0  0  0  0  0  0  0  0  0
    0.3943    1.2135    0.0000 C   0  0  0  0  0  0  0  0  0  0  0  0
    0.7062    2.6807    0.0000 C   0  0  0  0  0  0  0  0  0  0  0  0
    1.2760    0.0000    0.0000 O   0  0  0  0  0  0  0  0  0  0  0  0
    0.3943   -1.2135    0.0000 C   0  0  0  0  0  0  0  0  0  0  0  0
   -1.0323   -0.7500    0.0000 O   0  0  0  0  0  0  0  0  0  0  0  0
    6.4125    4.5348    0.0000 C   0  0  0  0  0  0  0  0  0  0  0  0
    7.5272    3.5312    0.0000 C   0  0  0  0  0  0  0  0  0  0  0  0
    8.9538    3.9947    0.0000 O   0  0  0  0  0  0  0  0  0  0  0  0
    9.2657    5.4619    0.0000 C   0  0  0  0  0  0  0  0  0  0  0  0
  1  2  1  0
  2  3  1  0
  3  4  2  0
  4  5  1  0
  5  6  2  0
  6  7  1  0
  7  8  1  0
  8  9  1  0
  9 10  1  0
 10 11  1  0
 11 12  1  0
 12 13  1  0
 13 14  2  0
 14 15  1  0
 15 16  1  0
 16 17  1  0
 15 18  2  0
 18 19  1  0
 19 20  1  0
 18 21  1  0
 21 22  1  0
 22 23  1  0
 21 24  2  0
  9 25  1  0
 25 26  1  0
 26 27  2  0
 27 28  1  0
 28 29  2  0
 29 30  1  0
 30 31  2  0
 30 32  1  0
 32 33  1  0
 33 34  1  0
  6 35  1  0
 35 36  2  0
 36 37  1  0
 37 38  1  0
 36  3  1  0
 24 13  1  0
 31 26  1  0
 34 29  1  0
M  END
>  <assay_chembl_id>  (494) 
CHEMBL3736695

>  <assay_description>  (494) 
Displacement of [3H]LSD from human recombinant 5-HT2B receptor stably expressed in HEK cell membrane after 90 mins by scintillation counting method

>  <parent_molecule_chembl_id>  (494) 
CHEMBL3735643

>  <canonical_smiles>  (494) 
COc1ccc(CCN(CCCc2cc(OC)c(OC)c(OC)c2)Cc2ccc3c(c2)OCO3)cc1OC

>  <standard_type>  (494) 
Ki

>  <standard_relation>  (494) 
=

>  <standard_value>  (494) 
231.0

>  <standard_units>  (494) 
nM

>  <target_pref_name>  (494) 
Serotonin 2b (5-HT2b) receptor

>  <target_chembl_id>  (494) 
CHEMBL1833

>  <target_organism>  (494) 
Homo sapiens

>  <pchembl_median>  (494) 
7.805

$$$$
CHEMBL3736516
     RDKit          2D

 33 36  0  0  0  0  0  0  0  0999 V2000
    8.0182   -0.4070    0.0000 C   0  0  0  0  0  0  0  0  0  0  0  0
    8.3301    1.0602    0.0000 O   0  0  0  0  0  0  0  0  0  0  0  0
    7.2154    2.0639    0.0000 C   0  0  0  0  0  0  0  0  0  0  0  0
    5.7888    1.6004    0.0000 C   0  0  0  0  0  0  0  0  0  0  0  0
    4.6741    2.6041    0.0000 C   0  0  0  0  0  0  0  0  0  0  0  0
    4.9859    4.0713    0.0000 C   0  0  0  0  0  0  0  0  0  0  0  0
    3.8712    5.0750    0.0000 C   0  0  0  0  0  0  0  0  0  0  0  0
    2.4446    4.6115    0.0000 C   0  0  0  0  0  0  0  0  0  0  0  0
    1.3299    5.6152    0.0000 N   0  0  0  0  0  0  0  0  0  0  0  0
    1.6418    7.0824    0.0000 C   0  0  0  0  0  0  0  0  0  0  0  0
    3.0684    7.5459    0.0000 C   0  0  0  0  0  0  0  0  0  0  0  0
    3.3802    9.0132    0.0000 C   0  0  0  0  0  0  0  0  0  0  0  0
    4.8068    9.4767    0.0000 C   0  0  0  0  0  0  0  0  0  0  0  0
    5.9215    8.4730    0.0000 C   0  0  0  0  0  0  0  0  0  0  0  0
    5.6097    7.0058    0.0000 C   0  0  0  0  0  0  0  0  0  0  0  0
    6.7244    6.0021    0.0000 C   0  0  0  0  0  0  0  0  0  0  0  0
    8.1510    6.4656    0.0000 C   0  0  0  0  0  0  0  0  0  0  0  0
    8.4628    7.9328    0.0000 C   0  0  0  0  0  0  0  0  0  0  0  0
    7.3481    8.9365    0.0000 C   0  0  0  0  0  0  0  0  0  0  0  0
   -0.0967    5.1517    0.0000 C   0  0  0  0  0  0  0  0  0  0  0  0
   -0.4086    3.6844    0.0000 C   0  0  0  0  0  0  0  0  0  0  0  0
   -1.8351    3.2209    0.0000 C   0  0  0  0  0  0  0  0  0  0  0  0
   -2.1470    1.7537    0.0000 C   0  0  0  0  0  0  0  0  0  0  0  0
   -1.0323    0.7500    0.0000 C   0  0  0  0  0  0  0  0  0  0  0  0
    0.3943    1.2135    0.0000 C   0  0  0  0  0  0  0  0  0  0  0  0
    0.7062    2.6807    0.0000 C   0  0  0  0  0  0  0  0  0  0  0  0
    1.2760    0.0000    0.0000 O   0  0  0  0  0  0  0  0  0  0  0  0
    0.3943   -1.2135    0.0000 C   0  0  0  0  0  0  0  0  0  0  0  0
   -1.0323   -0.7500    0.0000 O   0  0  0  0  0  0  0  0  0  0  0  0
    6.4125    4.5348    0.0000 C   0  0  0  0  0  0  0  0  0  0  0  0
    7.5272    3.5312    0.0000 C   0  0  0  0  0  0  0  0  0  0  0  0
    8.9538    3.9947    0.0000 O   0  0  0  0  0  0  0  0  0  0  0  0
   10.0685    2.9910    0.0000 C   0  0  0  0  0  0  0  0  0  0  0  0
  1  2  1  0
  2  3  1  0
  3  4  2  0
  4  5  1  0
  5  6  2  0
  6  7  1  0
  7  8  1  0
  8  9  1  0
  9 10  1  0
 10 11  1  0
 11 12  1  0
 12 13  2  0
 13 14  1  0
 14 15  2  0
 15 16  1  0
 16 17  2  0
 17 18  1  0
 18 19  2  0
  9 20  1  0
 20 21  1  0
 21 22  2  0
 22 23  1  0
 23 24  2  0
 24 25  1  0
 25 26  2  0
 25 27  1  0
 27 28  1  0
 28 29  1  0
  6 30  1  0
 30 31  2  0
 31 32  1  0
 32 33  1  0
 31  3  1  0
 19 14  1  0
 26 21  1  0
 29 24  1  0
M  END
>  <assay_chembl_id>  (495) 
CHEMBL3736695

>  <assay_description>  (495) 
Displacement of [3H]LSD from human recombinant 5-HT2B receptor stably expressed in HEK cell membrane after 90 mins by scintillation counting method

>  <parent_molecule_chembl_id>  (495) 
CHEMBL3736516

>  <canonical_smiles>  (495) 
COc1ccc(CCN(CC/C=C\c2ccccc2)Cc2ccc3c(c2)OCO3)cc1OC

>  <standard_type>  (495) 
Ki

>  <standard_relation>  (495) 
=

>  <standard_value>  (495) 
21.0

>  <standard_units>  (495) 
nM

>  <target_pref_name>  (495) 
Serotonin 2b (5-HT2b) receptor

>  <target_chembl_id>  (495) 
CHEMBL1833

>  <target_organism>  (495) 
Homo sapiens

>  <pchembl_median>  (495) 
6.26

$$$$
CHEMBL3735261
     RDKit          2D

 39 42  0  0  0  0  0  0  0  0999 V2000
   -3.3081   15.0353    0.0000 C   0  0  0  0  0  0  0  0  0  0  0  0
   -3.6200   13.5681    0.0000 O   0  0  0  0  0  0  0  0  0  0  0  0
   -2.5052   12.5644    0.0000 C   0  0  0  0  0  0  0  0  0  0  0  0
   -1.0786   13.0279    0.0000 C   0  0  0  0  0  0  0  0  0  0  0  0
    0.0361   12.0242    0.0000 C   0  0  0  0  0  0  0  0  0  0  0  0
   -0.2758   10.5570    0.0000 C   0  0  0  0  0  0  0  0  0  0  0  0
    0.8389    9.5533    0.0000 C   0  0  0  0  0  0  0  0  0  0  0  0
    0.5271    8.0861    0.0000 C   0  0  0  0  0  0  0  0  0  0  0  0
    1.6418    7.0824    0.0000 N   0  0  0  0  0  0  0  0  0  0  0  0
    3.0684    7.5459    0.0000 C   0  0  0  0  0  0  0  0  0  0  0  0
    3.3802    9.0132    0.0000 C   0  0  0  0  0  0  0  0  0  0  0  0
    4.8068    9.4767    0.0000 C   0  0  0  0  0  0  0  0  0  0  0  0
    5.1187   10.9439    0.0000 C   0  0  0  0  0  0  0  0  0  0  0  0
    6.5453   11.4074    0.0000 C   0  0  0  0  0  0  0  0  0  0  0  0
    6.8571   12.8747    0.0000 C   0  0  0  0  0  0  0  0  0  0  0  0
    8.2837   13.3382    0.0000 O   0  0  0  0  0  0  0  0  0  0  0  0
    9.3984   12.3345    0.0000 C   0  0  0  0  0  0  0  0  0  0  0  0
    5.7424   13.8783    0.0000 C   0  0  0  0  0  0  0  0  0  0  0  0
    6.0543   15.3456    0.0000 O   0  0  0  0  0  0  0  0  0  0  0  0
    4.9396   16.3493    0.0000 C   0  0  0  0  0  0  0  0  0  0  0  0
    4.3158   13.4148    0.0000 C   0  0  0  0  0  0  0  0  0  0  0  0
    3.2011   14.4185    0.0000 O   0  0  0  0  0  0  0  0  0  0  0  0
    1.7745   13.9550    0.0000 C   0  0  0  0  0  0  0  0  0  0  0  0
    4.0040   11.9476    0.0000 C   0  0  0  0  0  0  0  0  0  0  0  0
    1.3299    5.6152    0.0000 C   0  0  0  0  0  0  0  0  0  0  0  0
   -0.0967    5.1517    0.0000 C   0  0  0  0  0  0  0  0  0  0  0  0
   -0.4086    3.6844    0.0000 C   0  0  0  0  0  0  0  0  0  0  0  0
   -1.8351    3.2209    0.0000 C   0  0  0  0  0  0  0  0  0  0  0  0
   -2.1470    1.7537    0.0000 C   0  0  0  0  0  0  0  0  0  0  0  0
   -1.0323    0.7500    0.0000 C   0  0  0  0  0  0  0  0  0  0  0  0
    0.3943    1.2135    0.0000 C   0  0  0  0  0  0  0  0  0  0  0  0
    0.7062    2.6807    0.0000 C   0  0  0  0  0  0  0  0  0  0  0  0
    1.2760    0.0000    0.0000 O   0  0  0  0  0  0  0  0  0  0  0  0
    0.3943   -1.2135    0.0000 C   0  0  0  0  0  0  0  0  0  0  0  0
   -1.0323   -0.7500    0.0000 O   0  0  0  0  0  0  0  0  0  0  0  0
   -1.7024   10.0935    0.0000 C   0  0  0  0  0  0  0  0  0  0  0  0
   -2.8171   11.0972    0.0000 C   0  0  0  0  0  0  0  0  0  0  0  0
   -4.2437   10.6337    0.0000 O   0  0  0  0  0  0  0  0  0  0  0  0
   -4.5556    9.1664    0.0000 C   0  0  0  0  0  0  0  0  0  0  0  0
  1  2  1  0
  2  3  1  0
  3  4  2  0
  4  5  1  0
  5  6  2  0
  6  7  1  0
  7  8  1  0
  8  9  1  0
  9 10  1  0
 10 11  1  0
 11 12  1  0
 12 13  1  0
 13 14  2  0
 14 15  1  0
 15 16  1  0
 16 17  1  0
 15 18  2  0
 18 19  1  0
 19 20  1  0
 18 21  1  0
 21 22  1  0
 22 23  1  0
 21 24  2  0
  9 25  1  0
 25 26  1  0
 26 27  1  0
 27 28  2  0
 28 29  1  0
 29 30  2  0
 30 31  1  0
 31 32  2  0
 31 33  1  0
 33 34  1  0
 34 35  1  0
  6 36  1  0
 36 37  2  0
 37 38  1  0
 38 39  1  0
 37  3  1  0
 24 13  1  0
 32 27  1  0
 35 30  1  0
M  END
>  <assay_chembl_id>  (496) 
CHEMBL3736695

>  <assay_description>  (496) 
Displacement of [3H]LSD from human recombinant 5-HT2B receptor stably expressed in HEK cell membrane after 90 mins by scintillation counting method

>  <parent_molecule_chembl_id>  (496) 
CHEMBL3735261

>  <canonical_smiles>  (496) 
COc1ccc(CCN(CCCc2cc(OC)c(OC)c(OC)c2)CCc2ccc3c(c2)OCO3)cc1OC

>  <standard_type>  (496) 
Ki

>  <standard_relation>  (496) 
=

>  <standard_value>  (496) 
4.1

>  <standard_units>  (496) 
nM

>  <target_pref_name>  (496) 
Serotonin 2b (5-HT2b) receptor

>  <target_chembl_id>  (496) 
CHEMBL1833

>  <target_organism>  (496) 
Homo sapiens

>  <pchembl_median>  (496) 
6.49

$$$$
CHEMBL3735434
     RDKit          2D

 37 40  0  0  0  0  0  0  0  0999 V2000
    3.5130   15.8857    0.0000 C   0  0  0  0  0  0  0  0  0  0  0  0
    3.2011   14.4185    0.0000 O   0  0  0  0  0  0  0  0  0  0  0  0
    4.3158   13.4148    0.0000 C   0  0  0  0  0  0  0  0  0  0  0  0
    5.7424   13.8783    0.0000 C   0  0  0  0  0  0  0  0  0  0  0  0
    6.8571   12.8747    0.0000 C   0  0  0  0  0  0  0  0  0  0  0  0
    6.5453   11.4074    0.0000 C   0  0  0  0  0  0  0  0  0  0  0  0
    7.6600   10.4037    0.0000 O   0  0  0  0  0  0  0  0  0  0  0  0
    9.0866   10.8673    0.0000 C   0  0  0  0  0  0  0  0  0  0  0  0
    5.1187   10.9439    0.0000 C   0  0  0  0  0  0  0  0  0  0  0  0
    4.8068    9.4767    0.0000 C   0  0  0  0  0  0  0  0  0  0  0  0
    3.3802    9.0132    0.0000 C   0  0  0  0  0  0  0  0  0  0  0  0
    3.0684    7.5459    0.0000 C   0  0  0  0  0  0  0  0  0  0  0  0
    1.6418    7.0824    0.0000 N   0  0  0  0  0  0  0  0  0  0  0  0
    0.5271    8.0861    0.0000 C   0  0  0  0  0  0  0  0  0  0  0  0
    0.8389    9.5533    0.0000 C   0  0  0  0  0  0  0  0  0  0  0  0
   -0.2758   10.5570    0.0000 C   0  0  0  0  0  0  0  0  0  0  0  0
    0.0361   12.0242    0.0000 C   0  0  0  0  0  0  0  0  0  0  0  0
   -1.0786   13.0279    0.0000 C   0  0  0  0  0  0  0  0  0  0  0  0
   -2.5052   12.5644    0.0000 C   0  0  0  0  0  0  0  0  0  0  0  0
   -3.6200   13.5681    0.0000 O   0  0  0  0  0  0  0  0  0  0  0  0
   -3.3081   15.0353    0.0000 C   0  0  0  0  0  0  0  0  0  0  0  0
   -2.8171   11.0972    0.0000 C   0  0  0  0  0  0  0  0  0  0  0  0
   -4.2437   10.6337    0.0000 O   0  0  0  0  0  0  0  0  0  0  0  0
   -4.5556    9.1664    0.0000 C   0  0  0  0  0  0  0  0  0  0  0  0
   -1.7024   10.0935    0.0000 C   0  0  0  0  0  0  0  0  0  0  0  0
    1.3299    5.6152    0.0000 C   0  0  0  0  0  0  0  0  0  0  0  0
   -0.0967    5.1517    0.0000 C   0  0  0  0  0  0  0  0  0  0  0  0
   -0.4086    3.6844    0.0000 C   0  0  0  0  0  0  0  0  0  0  0  0
   -1.8351    3.2209    0.0000 C   0  0  0  0  0  0  0  0  0  0  0  0
   -2.1470    1.7537    0.0000 C   0  0  0  0  0  0  0  0  0  0  0  0
   -1.0323    0.7500    0.0000 C   0  0  0  0  0  0  0  0  0  0  0  0
    0.3943    1.2135    0.0000 C   0  0  0  0  0  0  0  0  0  0  0  0
    0.7062    2.6807    0.0000 C   0  0  0  0  0  0  0  0  0  0  0  0
    1.2760    0.0000    0.0000 O   0  0  0  0  0  0  0  0  0  0  0  0
    0.3943   -1.2135    0.0000 C   0  0  0  0  0  0  0  0  0  0  0  0
   -1.0323   -0.7500    0.0000 O   0  0  0  0  0  0  0  0  0  0  0  0
    4.0040   11.9476    0.0000 C   0  0  0  0  0  0  0  0  0  0  0  0
  1  2  1  0
  2  3  1  0
  3  4  2  0
  4  5  1  0
  5  6  2  0
  6  7  1  0
  7  8  1  0
  6  9  1  0
  9 10  1  0
 10 11  1  0
 11 12  1  0
 12 13  1  0
 13 14  1  0
 14 15  1  0
 15 16  1  0
 16 17  2  0
 17 18  1  0
 18 19  2  0
 19 20  1  0
 20 21  1  0
 19 22  1  0
 22 23  1  0
 23 24  1  0
 22 25  2  0
 13 26  1  0
 26 27  1  0
 27 28  1  0
 28 29  2  0
 29 30  1  0
 30 31  2  0
 31 32  1  0
 32 33  2  0
 32 34  1  0
 34 35  1  0
 35 36  1  0
  9 37  2  0
 37  3  1  0
 25 16  1  0
 33 28  1  0
 36 31  1  0
M  END
>  <assay_chembl_id>  (497) 
CHEMBL3736695

>  <assay_description>  (497) 
Displacement of [3H]LSD from human recombinant 5-HT2B receptor stably expressed in HEK cell membrane after 90 mins by scintillation counting method

>  <parent_molecule_chembl_id>  (497) 
CHEMBL3735434

>  <canonical_smiles>  (497) 
COc1ccc(OC)c(CCCN(CCc2ccc(OC)c(OC)c2)CCc2ccc3c(c2)OCO3)c1

>  <standard_type>  (497) 
Ki

>  <standard_relation>  (497) 
=

>  <standard_value>  (497) 
36.0

>  <standard_units>  (497) 
nM

>  <target_pref_name>  (497) 
Serotonin 2b (5-HT2b) receptor

>  <target_chembl_id>  (497) 
CHEMBL1833

>  <target_organism>  (497) 
Homo sapiens

>  <pchembl_median>  (497) 
6.62

$$$$
CHEMBL3736207
     RDKit          2D

 35 38  0  0  0  0  0  0  0  0999 V2000
    7.4809   15.8091    0.0000 C   0  0  0  0  0  0  0  0  0  0  0  0
    6.0543   15.3456    0.0000 O   0  0  0  0  0  0  0  0  0  0  0  0
    5.7424   13.8783    0.0000 C   0  0  0  0  0  0  0  0  0  0  0  0
    6.8571   12.8747    0.0000 C   0  0  0  0  0  0  0  0  0  0  0  0
    6.5453   11.4074    0.0000 C   0  0  0  0  0  0  0  0  0  0  0  0
    5.1187   10.9439    0.0000 C   0  0  0  0  0  0  0  0  0  0  0  0
    4.8068    9.4767    0.0000 C   0  0  0  0  0  0  0  0  0  0  0  0
    3.3802    9.0132    0.0000 C   0  0  0  0  0  0  0  0  0  0  0  0
    3.0684    7.5459    0.0000 C   0  0  0  0  0  0  0  0  0  0  0  0
    1.6418    7.0824    0.0000 N   0  0  0  0  0  0  0  0  0  0  0  0
    0.5271    8.0861    0.0000 C   0  0  0  0  0  0  0  0  0  0  0  0
    0.8389    9.5533    0.0000 C   0  0  0  0  0  0  0  0  0  0  0  0
   -0.2758   10.5570    0.0000 C   0  0  0  0  0  0  0  0  0  0  0  0
    0.0361   12.0242    0.0000 C   0  0  0  0  0  0  0  0  0  0  0  0
   -1.0786   13.0279    0.0000 C   0  0  0  0  0  0  0  0  0  0  0  0
   -2.5052   12.5644    0.0000 C   0  0  0  0  0  0  0  0  0  0  0  0
   -3.6200   13.5681    0.0000 O   0  0  0  0  0  0  0  0  0  0  0  0
   -3.3081   15.0353    0.0000 C   0  0  0  0  0  0  0  0  0  0  0  0
   -2.8171   11.0972    0.0000 C   0  0  0  0  0  0  0  0  0  0  0  0
   -4.2437   10.6337    0.0000 O   0  0  0  0  0  0  0  0  0  0  0  0
   -4.5556    9.1664    0.0000 C   0  0  0  0  0  0  0  0  0  0  0  0
   -1.7024   10.0935    0.0000 C   0  0  0  0  0  0  0  0  0  0  0  0
    1.3299    5.6152    0.0000 C   0  0  0  0  0  0  0  0  0  0  0  0
   -0.0967    5.1517    0.0000 C   0  0  0  0  0  0  0  0  0  0  0  0
   -0.4086    3.6844    0.0000 C   0  0  0  0  0  0  0  0  0  0  0  0
   -1.8351    3.2209    0.0000 C   0  0  0  0  0  0  0  0  0  0  0  0
   -2.1470    1.7537    0.0000 C   0  0  0  0  0  0  0  0  0  0  0  0
   -1.0323    0.7500    0.0000 C   0  0  0  0  0  0  0  0  0  0  0  0
    0.3943    1.2135    0.0000 C   0  0  0  0  0  0  0  0  0  0  0  0
    0.7062    2.6807    0.0000 C   0  0  0  0  0  0  0  0  0  0  0  0
    1.2760    0.0000    0.0000 O   0  0  0  0  0  0  0  0  0  0  0  0
    0.3943   -1.2135    0.0000 C   0  0  0  0  0  0  0  0  0  0  0  0
   -1.0323   -0.7500    0.0000 O   0  0  0  0  0  0  0  0  0  0  0  0
    4.0040   11.9476    0.0000 C   0  0  0  0  0  0  0  0  0  0  0  0
    4.3158   13.4148    0.0000 C   0  0  0  0  0  0  0  0  0  0  0  0
  1  2  1  0
  2  3  1  0
  3  4  2  0
  4  5  1  0
  5  6  2  0
  6  7  1  0
  7  8  1  0
  8  9  1  0
  9 10  1  0
 10 11  1  0
 11 12  1  0
 12 13  1  0
 13 14  2  0
 14 15  1  0
 15 16  2  0
 16 17  1  0
 17 18  1  0
 16 19  1  0
 19 20  1  0
 20 21  1  0
 19 22  2  0
 10 23  1  0
 23 24  1  0
 24 25  1  0
 25 26  2  0
 26 27  1  0
 27 28  2  0
 28 29  1  0
 29 30  2  0
 29 31  1  0
 31 32  1  0
 32 33  1  0
  6 34  1  0
 34 35  2  0
 35  3  1  0
 22 13  1  0
 30 25  1  0
 33 28  1  0
M  END
>  <assay_chembl_id>  (498) 
CHEMBL3736695

>  <assay_description>  (498) 
Displacement of [3H]LSD from human recombinant 5-HT2B receptor stably expressed in HEK cell membrane after 90 mins by scintillation counting method

>  <parent_molecule_chembl_id>  (498) 
CHEMBL3736207

>  <canonical_smiles>  (498) 
COc1ccc(CCCN(CCc2ccc(OC)c(OC)c2)CCc2ccc3c(c2)OCO3)cc1

>  <standard_type>  (498) 
Ki

>  <standard_relation>  (498) 
=

>  <standard_value>  (498) 
6.8

>  <standard_units>  (498) 
nM

>  <target_pref_name>  (498) 
Serotonin 2b (5-HT2b) receptor

>  <target_chembl_id>  (498) 
CHEMBL1833

>  <target_organism>  (498) 
Homo sapiens

>  <pchembl_median>  (498) 
6.41

$$$$
CHEMBL3735911
     RDKit          2D

 35 38  0  0  0  0  0  0  0  0999 V2000
    3.5130   15.8857    0.0000 C   0  0  0  0  0  0  0  0  0  0  0  0
    3.2011   14.4185    0.0000 O   0  0  0  0  0  0  0  0  0  0  0  0
    4.3158   13.4148    0.0000 C   0  0  0  0  0  0  0  0  0  0  0  0
    5.7424   13.8783    0.0000 C   0  0  0  0  0  0  0  0  0  0  0  0
    6.8571   12.8747    0.0000 C   0  0  0  0  0  0  0  0  0  0  0  0
    6.5453   11.4074    0.0000 C   0  0  0  0  0  0  0  0  0  0  0  0
    5.1187   10.9439    0.0000 C   0  0  0  0  0  0  0  0  0  0  0  0
    4.8068    9.4767    0.0000 C   0  0  0  0  0  0  0  0  0  0  0  0
    3.3802    9.0132    0.0000 C   0  0  0  0  0  0  0  0  0  0  0  0
    3.0684    7.5459    0.0000 C   0  0  0  0  0  0  0  0  0  0  0  0
    1.6418    7.0824    0.0000 N   0  0  0  0  0  0  0  0  0  0  0  0
    0.5271    8.0861    0.0000 C   0  0  0  0  0  0  0  0  0  0  0  0
    0.8389    9.5533    0.0000 C   0  0  0  0  0  0  0  0  0  0  0  0
   -0.2758   10.5570    0.0000 C   0  0  0  0  0  0  0  0  0  0  0  0
    0.0361   12.0242    0.0000 C   0  0  0  0  0  0  0  0  0  0  0  0
   -1.0786   13.0279    0.0000 C   0  0  0  0  0  0  0  0  0  0  0  0
   -2.5052   12.5644    0.0000 C   0  0  0  0  0  0  0  0  0  0  0  0
   -3.6200   13.5681    0.0000 O   0  0  0  0  0  0  0  0  0  0  0  0
   -3.3081   15.0353    0.0000 C   0  0  0  0  0  0  0  0  0  0  0  0
   -2.8171   11.0972    0.0000 C   0  0  0  0  0  0  0  0  0  0  0  0
   -4.2437   10.6337    0.0000 O   0  0  0  0  0  0  0  0  0  0  0  0
   -4.5556    9.1664    0.0000 C   0  0  0  0  0  0  0  0  0  0  0  0
   -1.7024   10.0935    0.0000 C   0  0  0  0  0  0  0  0  0  0  0  0
    1.3299    5.6152    0.0000 C   0  0  0  0  0  0  0  0  0  0  0  0
   -0.0967    5.1517    0.0000 C   0  0  0  0  0  0  0  0  0  0  0  0
   -0.4086    3.6844    0.0000 C   0  0  0  0  0  0  0  0  0  0  0  0
   -1.8351    3.2209    0.0000 C   0  0  0  0  0  0  0  0  0  0  0  0
   -2.1470    1.7537    0.0000 C   0  0  0  0  0  0  0  0  0  0  0  0
   -1.0323    0.7500    0.0000 C   0  0  0  0  0  0  0  0  0  0  0  0
    0.3943    1.2135    0.0000 C   0  0  0  0  0  0  0  0  0  0  0  0
    0.7062    2.6807    0.0000 C   0  0  0  0  0  0  0  0  0  0  0  0
    1.2760    0.0000    0.0000 O   0  0  0  0  0  0  0  0  0  0  0  0
    0.3943   -1.2135    0.0000 C   0  0  0  0  0  0  0  0  0  0  0  0
   -1.0323   -0.7500    0.0000 O   0  0  0  0  0  0  0  0  0  0  0  0
    4.0040   11.9476    0.0000 C   0  0  0  0  0  0  0  0  0  0  0  0
  1  2  1  0
  2  3  1  0
  3  4  2  0
  4  5  1  0
  5  6  2  0
  6  7  1  0
  7  8  1  0
  8  9  1  0
  9 10  1  0
 10 11  1  0
 11 12  1  0
 12 13  1  0
 13 14  1  0
 14 15  2  0
 15 16  1  0
 16 17  2  0
 17 18  1  0
 18 19  1  0
 17 20  1  0
 20 21  1  0
 21 22  1  0
 20 23  2  0
 11 24  1  0
 24 25  1  0
 25 26  1  0
 26 27  2  0
 27 28  1  0
 28 29  2  0
 29 30  1  0
 30 31  2  0
 30 32  1  0
 32 33  1  0
 33 34  1  0
  7 35  2  0
 35  3  1  0
 23 14  1  0
 31 26  1  0
 34 29  1  0
M  END
>  <assay_chembl_id>  (499) 
CHEMBL3736695

>  <assay_description>  (499) 
Displacement of [3H]LSD from human recombinant 5-HT2B receptor stably expressed in HEK cell membrane after 90 mins by scintillation counting method

>  <parent_molecule_chembl_id>  (499) 
CHEMBL3735911

>  <canonical_smiles>  (499) 
COc1cccc(CCCN(CCc2ccc(OC)c(OC)c2)CCc2ccc3c(c2)OCO3)c1

>  <standard_type>  (499) 
Ki

>  <standard_relation>  (499) 
=

>  <standard_value>  (499) 
4.6

>  <standard_units>  (499) 
nM

>  <target_pref_name>  (499) 
Serotonin 2b (5-HT2b) receptor

>  <target_chembl_id>  (499) 
CHEMBL1833

>  <target_organism>  (499) 
Homo sapiens

>  <pchembl_median>  (499) 
6.96

$$$$
CHEMBL3736149
     RDKit          2D

 35 38  0  0  0  0  0  0  0  0999 V2000
    1.4627   12.4878    0.0000 C   0  0  0  0  0  0  0  0  0  0  0  0
    2.5774   11.4841    0.0000 O   0  0  0  0  0  0  0  0  0  0  0  0
    4.0040   11.9476    0.0000 C   0  0  0  0  0  0  0  0  0  0  0  0
    4.3158   13.4148    0.0000 C   0  0  0  0  0  0  0  0  0  0  0  0
    5.7424   13.8783    0.0000 C   0  0  0  0  0  0  0  0  0  0  0  0
    6.8571   12.8747    0.0000 C   0  0  0  0  0  0  0  0  0  0  0  0
    6.5453   11.4074    0.0000 C   0  0  0  0  0  0  0  0  0  0  0  0
    5.1187   10.9439    0.0000 C   0  0  0  0  0  0  0  0  0  0  0  0
    4.8068    9.4767    0.0000 C   0  0  0  0  0  0  0  0  0  0  0  0
    3.3802    9.0132    0.0000 C   0  0  0  0  0  0  0  0  0  0  0  0
    3.0684    7.5459    0.0000 C   0  0  0  0  0  0  0  0  0  0  0  0
    1.6418    7.0824    0.0000 N   0  0  0  0  0  0  0  0  0  0  0  0
    0.5271    8.0861    0.0000 C   0  0  0  0  0  0  0  0  0  0  0  0
    0.8389    9.5533    0.0000 C   0  0  0  0  0  0  0  0  0  0  0  0
   -0.2758   10.5570    0.0000 C   0  0  0  0  0  0  0  0  0  0  0  0
    0.0361   12.0242    0.0000 C   0  0  0  0  0  0  0  0  0  0  0  0
   -1.0786   13.0279    0.0000 C   0  0  0  0  0  0  0  0  0  0  0  0
   -2.5052   12.5644    0.0000 C   0  0  0  0  0  0  0  0  0  0  0  0
   -3.6200   13.5681    0.0000 O   0  0  0  0  0  0  0  0  0  0  0  0
   -3.3081   15.0353    0.0000 C   0  0  0  0  0  0  0  0  0  0  0  0
   -2.8171   11.0972    0.0000 C   0  0  0  0  0  0  0  0  0  0  0  0
   -4.2437   10.6337    0.0000 O   0  0  0  0  0  0  0  0  0  0  0  0
   -4.5556    9.1664    0.0000 C   0  0  0  0  0  0  0  0  0  0  0  0
   -1.7024   10.0935    0.0000 C   0  0  0  0  0  0  0  0  0  0  0  0
    1.3299    5.6152    0.0000 C   0  0  0  0  0  0  0  0  0  0  0  0
   -0.0967    5.1517    0.0000 C   0  0  0  0  0  0  0  0  0  0  0  0
   -0.4086    3.6844    0.0000 C   0  0  0  0  0  0  0  0  0  0  0  0
   -1.8351    3.2209    0.0000 C   0  0  0  0  0  0  0  0  0  0  0  0
   -2.1470    1.7537    0.0000 C   0  0  0  0  0  0  0  0  0  0  0  0
   -1.0323    0.7500    0.0000 C   0  0  0  0  0  0  0  0  0  0  0  0
    0.3943    1.2135    0.0000 C   0  0  0  0  0  0  0  0  0  0  0  0
    0.7062    2.6807    0.0000 C   0  0  0  0  0  0  0  0  0  0  0  0
    1.2760    0.0000    0.0000 O   0  0  0  0  0  0  0  0  0  0  0  0
    0.3943   -1.2135    0.0000 C   0  0  0  0  0  0  0  0  0  0  0  0
   -1.0323   -0.7500    0.0000 O   0  0  0  0  0  0  0  0  0  0  0  0
  1  2  1  0
  2  3  1  0
  3  4  2  0
  4  5  1  0
  5  6  2  0
  6  7  1  0
  7  8  2  0
  8  9  1  0
  9 10  1  0
 10 11  1  0
 11 12  1  0
 12 13  1  0
 13 14  1  0
 14 15  1  0
 15 16  2  0
 16 17  1  0
 17 18  2  0
 18 19  1  0
 19 20  1  0
 18 21  1  0
 21 22  1  0
 22 23  1  0
 21 24  2  0
 12 25  1  0
 25 26  1  0
 26 27  1  0
 27 28  2  0
 28 29  1  0
 29 30  2  0
 30 31  1  0
 31 32  2  0
 31 33  1  0
 33 34  1  0
 34 35  1  0
  8  3  1  0
 24 15  1  0
 32 27  1  0
 35 30  1  0
M  END
>  <assay_chembl_id>  (500) 
CHEMBL3736695

>  <assay_description>  (500) 
Displacement of [3H]LSD from human recombinant 5-HT2B receptor stably expressed in HEK cell membrane after 90 mins by scintillation counting method

>  <parent_molecule_chembl_id>  (500) 
CHEMBL3736149

>  <canonical_smiles>  (500) 
COc1ccccc1CCCN(CCc1ccc(OC)c(OC)c1)CCc1ccc2c(c1)OCO2

>  <standard_type>  (500) 
Ki

>  <standard_relation>  (500) 
=

>  <standard_value>  (500) 
5.8

>  <standard_units>  (500) 
nM

>  <target_pref_name>  (500) 
Serotonin 2b (5-HT2b) receptor

>  <target_chembl_id>  (500) 
CHEMBL1833

>  <target_organism>  (500) 
Homo sapiens

>  <pchembl_median>  (500) 
8.15

$$$$
CHEMBL3736252
     RDKit          2D

 32 35  0  0  0  0  0  0  0  0999 V2000
   -3.3081   15.0353    0.0000 C   0  0  0  0  0  0  0  0  0  0  0  0
   -3.6200   13.5681    0.0000 O   0  0  0  0  0  0  0  0  0  0  0  0
   -2.5052   12.5644    0.0000 C   0  0  0  0  0  0  0  0  0  0  0  0
   -1.0786   13.0279    0.0000 C   0  0  0  0  0  0  0  0  0  0  0  0
    0.0361   12.0242    0.0000 C   0  0  0  0  0  0  0  0  0  0  0  0
   -0.2758   10.5570    0.0000 C   0  0  0  0  0  0  0  0  0  0  0  0
    0.8389    9.5533    0.0000 C   0  0  0  0  0  0  0  0  0  0  0  0
    0.5271    8.0861    0.0000 C   0  0  0  0  0  0  0  0  0  0  0  0
    1.6418    7.0824    0.0000 N   0  0  0  0  0  0  0  0  0  0  0  0
    3.0684    7.5459    0.0000 C   0  0  0  0  0  0  0  0  0  0  0  0
    3.3802    9.0132    0.0000 C   0  0  0  0  0  0  0  0  0  0  0  0
    4.8068    9.4767    0.0000 C   0  0  0  0  0  0  0  0  0  0  0  0
    5.9215    8.4730    0.0000 C   0  0  0  0  0  0  0  0  0  0  0  0
    7.3481    8.9365    0.0000 C   0  0  0  0  0  0  0  0  0  0  0  0
    7.6600   10.4037    0.0000 C   0  0  0  0  0  0  0  0  0  0  0  0
    6.5453   11.4074    0.0000 C   0  0  0  0  0  0  0  0  0  0  0  0
    5.1187   10.9439    0.0000 C   0  0  0  0  0  0  0  0  0  0  0  0
    1.3299    5.6152    0.0000 C   0  0  0  0  0  0  0  0  0  0  0  0
   -0.0967    5.1517    0.0000 C   0  0  0  0  0  0  0  0  0  0  0  0
   -0.4086    3.6844    0.0000 C   0  0  0  0  0  0  0  0  0  0  0  0
   -1.8351    3.2209    0.0000 C   0  0  0  0  0  0  0  0  0  0  0  0
   -2.1470    1.7537    0.0000 C   0  0  0  0  0  0  0  0  0  0  0  0
   -1.0323    0.7500    0.0000 C   0  0  0  0  0  0  0  0  0  0  0  0
    0.3943    1.2135    0.0000 C   0  0  0  0  0  0  0  0  0  0  0  0
    0.7062    2.6807    0.0000 C   0  0  0  0  0  0  0  0  0  0  0  0
    1.2760    0.0000    0.0000 O   0  0  0  0  0  0  0  0  0  0  0  0
    0.3943   -1.2135    0.0000 C   0  0  0  0  0  0  0  0  0  0  0  0
   -1.0323   -0.7500    0.0000 O   0  0  0  0  0  0  0  0  0  0  0  0
   -1.7024   10.0935    0.0000 C   0  0  0  0  0  0  0  0  0  0  0  0
   -2.8171   11.0972    0.0000 C   0  0  0  0  0  0  0  0  0  0  0  0
   -4.2437   10.6337    0.0000 O   0  0  0  0  0  0  0  0  0  0  0  0
   -4.5556    9.1664    0.0000 C   0  0  0  0  0  0  0  0  0  0  0  0
  1  2  1  0
  2  3  1  0
  3  4  2  0
  4  5  1  0
  5  6  2  0
  6  7  1  0
  7  8  1  0
  8  9  1  0
  9 10  1  0
 10 11  1  0
 11 12  1  0
 12 13  2  0
 13 14  1  0
 14 15  2  0
 15 16  1  0
 16 17  2  0
  9 18  1  0
 18 19  1  0
 19 20  1  0
 20 21  2  0
 21 22  1  0
 22 23  2  0
 23 24  1  0
 24 25  2  0
 24 26  1  0
 26 27  1  0
 27 28  1  0
  6 29  1  0
 29 30  2  0
 30 31  1  0
 31 32  1  0
 30  3  1  0
 17 12  1  0
 25 20  1  0
 28 23  1  0
M  END
>  <assay_chembl_id>  (501) 
CHEMBL3736695

>  <assay_description>  (501) 
Displacement of [3H]LSD from human recombinant 5-HT2B receptor stably expressed in HEK cell membrane after 90 mins by scintillation counting method

>  <parent_molecule_chembl_id>  (501) 
CHEMBL3736252

>  <canonical_smiles>  (501) 
COc1ccc(CCN(CCc2ccccc2)CCc2ccc3c(c2)OCO3)cc1OC

>  <standard_type>  (501) 
Ki

>  <standard_relation>  (501) 
=

>  <standard_value>  (501) 
17.0

>  <standard_units>  (501) 
nM

>  <target_pref_name>  (501) 
Serotonin 2b (5-HT2b) receptor

>  <target_chembl_id>  (501) 
CHEMBL1833

>  <target_organism>  (501) 
Homo sapiens

>  <pchembl_median>  (501) 
7.745

$$$$
CHEMBL3735862
     RDKit          2D

 31 34  0  0  0  0  0  0  0  0999 V2000
   10.2013    9.8636    0.0000 C   0  0  0  0  0  0  0  0  0  0  0  0
    9.0866   10.8673    0.0000 O   0  0  0  0  0  0  0  0  0  0  0  0
    7.6600   10.4037    0.0000 C   0  0  0  0  0  0  0  0  0  0  0  0
    7.3481    8.9365    0.0000 C   0  0  0  0  0  0  0  0  0  0  0  0
    5.9215    8.4730    0.0000 C   0  0  0  0  0  0  0  0  0  0  0  0
    4.8068    9.4767    0.0000 C   0  0  0  0  0  0  0  0  0  0  0  0
    3.3802    9.0132    0.0000 C   0  0  0  0  0  0  0  0  0  0  0  0
    3.0684    7.5459    0.0000 C   0  0  0  0  0  0  0  0  0  0  0  0
    1.6418    7.0824    0.0000 N   0  0  0  0  0  0  0  0  0  0  0  0
    1.3299    5.6152    0.0000 C   0  0  0  0  0  0  0  0  0  0  0  0
   -0.0967    5.1517    0.0000 C   0  0  0  0  0  0  0  0  0  0  0  0
   -0.4086    3.6844    0.0000 C   0  0  0  0  0  0  0  0  0  0  0  0
   -1.8351    3.2209    0.0000 C   0  0  0  0  0  0  0  0  0  0  0  0
   -2.1470    1.7537    0.0000 C   0  0  0  0  0  0  0  0  0  0  0  0
   -1.0323    0.7500    0.0000 C   0  0  0  0  0  0  0  0  0  0  0  0
    0.3943    1.2135    0.0000 C   0  0  0  0  0  0  0  0  0  0  0  0
    0.7062    2.6807    0.0000 C   0  0  0  0  0  0  0  0  0  0  0  0
    1.2760    0.0000    0.0000 O   0  0  0  0  0  0  0  0  0  0  0  0
    0.3943   -1.2135    0.0000 C   0  0  0  0  0  0  0  0  0  0  0  0
   -1.0323   -0.7500    0.0000 O   0  0  0  0  0  0  0  0  0  0  0  0
    0.5271    8.0861    0.0000 C   0  0  0  0  0  0  0  0  0  0  0  0
    0.8389    9.5533    0.0000 C   0  0  0  0  0  0  0  0  0  0  0  0
    2.2655   10.0169    0.0000 C   0  0  0  0  0  0  0  0  0  0  0  0
    2.5774   11.4841    0.0000 C   0  0  0  0  0  0  0  0  0  0  0  0
    1.4627   12.4878    0.0000 C   0  0  0  0  0  0  0  0  0  0  0  0
    0.0361   12.0242    0.0000 C   0  0  0  0  0  0  0  0  0  0  0  0
   -0.2758   10.5570    0.0000 C   0  0  0  0  0  0  0  0  0  0  0  0
    5.1187   10.9439    0.0000 C   0  0  0  0  0  0  0  0  0  0  0  0
    6.5453   11.4074    0.0000 C   0  0  0  0  0  0  0  0  0  0  0  0
    6.8571   12.8747    0.0000 O   0  0  0  0  0  0  0  0  0  0  0  0
    5.7424   13.8783    0.0000 C   0  0  0  0  0  0  0  0  0  0  0  0
  1  2  1  0
  2  3  1  0
  3  4  2  0
  4  5  1  0
  5  6  2  0
  6  7  1  0
  7  8  1  0
  8  9  1  0
  9 10  1  0
 10 11  1  0
 11 12  1  0
 12 13  2  0
 13 14  1  0
 14 15  2  0
 15 16  1  0
 16 17  2  0
 16 18  1  0
 18 19  1  0
 19 20  1  0
  9 21  1  0
 21 22  1  0
 22 23  2  0
 23 24  1  0
 24 25  2  0
 25 26  1  0
 26 27  2  0
  6 28  1  0
 28 29  2  0
 29 30  1  0
 30 31  1  0
 29  3  1  0
 17 12  1  0
 27 22  1  0
 20 15  1  0
M  END
>  <assay_chembl_id>  (502) 
CHEMBL3736695

>  <assay_description>  (502) 
Displacement of [3H]LSD from human recombinant 5-HT2B receptor stably expressed in HEK cell membrane after 90 mins by scintillation counting method

>  <parent_molecule_chembl_id>  (502) 
CHEMBL3735862

>  <canonical_smiles>  (502) 
COc1ccc(CCN(CCc2ccc3c(c2)OCO3)Cc2ccccc2)cc1OC

>  <standard_type>  (502) 
Ki

>  <standard_relation>  (502) 
=

>  <standard_value>  (502) 
59.0

>  <standard_units>  (502) 
nM

>  <target_pref_name>  (502) 
Serotonin 2b (5-HT2b) receptor

>  <target_chembl_id>  (502) 
CHEMBL1833

>  <target_organism>  (502) 
Homo sapiens

>  <pchembl_median>  (502) 
6.3

$$$$
CHEMBL3764133
     RDKit          2D

 33 36  0  0  0  0  0  0  0  0999 V2000
   10.9058    0.0000    0.0000 Cl  0  0  0  0  0  0  0  0  0  0  0  0
    3.7548   -2.1855    0.0000 O   0  0  0  0  0  0  0  0  0  0  0  0
    2.6401   -3.1891    0.0000 C   0  0  0  0  0  0  0  0  0  0  0  0
    2.9520   -4.6564    0.0000 C   0  0  0  0  0  0  0  0  0  0  0  0
    4.3786   -5.1199    0.0000 C   0  0  0  0  0  0  0  0  0  0  0  0
    4.6904   -6.5871    0.0000 C   0  0  0  0  0  0  0  0  0  0  0  0
    6.1170   -7.0506    0.0000 C   0  0  0  0  0  0  0  0  0  0  0  0
    6.4289   -8.5179    0.0000 N   0  0  0  0  0  0  0  0  0  0  0  0
    5.3142   -9.5216    0.0000 C   0  0  0  0  0  0  0  0  0  0  0  0
    5.6260  -10.9888    0.0000 C   0  0  0  0  0  0  0  0  0  0  0  0
    7.0526  -11.4523    0.0000 N   0  0  0  0  0  0  0  0  0  0  0  0
    7.3645  -12.9195    0.0000 C   0  0  0  0  0  0  0  0  0  0  0  0
    6.2498  -13.9232    0.0000 C   0  0  0  0  0  0  0  0  0  0  0  0
    6.5616  -15.3904    0.0000 C   0  0  0  0  0  0  0  0  0  0  0  0
    7.9882  -15.8540    0.0000 C   0  0  0  0  0  0  0  0  0  0  0  0
    9.1029  -14.8503    0.0000 C   0  0  0  0  0  0  0  0  0  0  0  0
    8.7911  -13.3831    0.0000 C   0  0  0  0  0  0  0  0  0  0  0  0
    9.9058  -12.3794    0.0000 O   0  0  0  0  0  0  0  0  0  0  0  0
    8.1673  -10.4486    0.0000 C   0  0  0  0  0  0  0  0  0  0  0  0
    7.8555   -8.9814    0.0000 C   0  0  0  0  0  0  0  0  0  0  0  0
    1.2135   -2.7256    0.0000 N   0  0  0  0  0  0  0  0  0  0  0  0
    0.7500   -1.2990    0.0000 C   0  0  0  0  0  0  0  0  0  0  0  0
    1.5000    0.0000    0.0000 C   0  0  0  0  0  0  0  0  0  0  0  0
    0.7500    1.2990    0.0000 C   0  0  0  0  0  0  0  0  0  0  0  0
   -0.7500    1.2990    0.0000 C   0  0  0  0  0  0  0  0  0  0  0  0
   -1.5000    0.0000    0.0000 C   0  0  0  0  0  0  0  0  0  0  0  0
   -0.7500   -1.2990    0.0000 C   0  0  0  0  0  0  0  0  0  0  0  0
   -1.2135   -2.7256    0.0000 C   0  0  0  0  0  0  0  0  0  0  0  0
   -2.5838   -3.3357    0.0000 C   0  0  0  0  0  0  0  0  0  0  0  0
   -2.7406   -4.8275    0.0000 C   0  0  0  0  0  0  0  0  0  0  0  0
   -1.5271   -5.7092    0.0000 C   0  0  0  0  0  0  0  0  0  0  0  0
   -0.1568   -5.0991    0.0000 C   0  0  0  0  0  0  0  0  0  0  0  0
   -0.0000   -3.6073    0.0000 C   0  0  0  0  0  0  0  0  0  0  0  0
  2  3  2  0
  3  4  1  0
  4  5  1  0
  5  6  1  0
  6  7  1  0
  7  8  1  0
  8  9  1  0
  9 10  1  0
 10 11  1  0
 11 12  1  0
 12 13  2  0
 13 14  1  0
 14 15  2  0
 15 16  1  0
 16 17  2  0
 17 18  1  0
 11 19  1  0
 19 20  1  0
  3 21  1  0
 21 22  1  0
 22 23  2  0
 23 24  1  0
 24 25  2  0
 25 26  1  0
 26 27  2  0
 27 28  1  0
 28 29  2  0
 29 30  1  0
 30 31  2  0
 31 32  1  0
 32 33  2  0
 20  8  1  0
 33 21  1  0
 17 12  1  0
 27 22  1  0
 33 28  1  0
M  END
>  <assay_chembl_id>  (503) 
CHEMBL3768260

>  <assay_description>  (503) 
Binding affinity to recombinant 5-HT2B receptor (unknown origin) after 1.5 hrs by radioligand displacement assay

>  <parent_molecule_chembl_id>  (503) 
CHEMBL3765875

>  <canonical_smiles>  (503) 
Cl.O=C(CCCCN1CCN(c2ccccc2O)CC1)n1c2ccccc2c2ccccc21

>  <standard_type>  (503) 
Ki

>  <standard_relation>  (503) 
=

>  <standard_value>  (503) 
83.0

>  <standard_units>  (503) 
nM

>  <target_pref_name>  (503) 
Serotonin 2b (5-HT2b) receptor

>  <target_chembl_id>  (503) 
CHEMBL1833

>  <target_organism>  (503) 
Homo sapiens

>  <pchembl_median>  (503) 
6.51

$$$$
CHEMBL3763779
     RDKit          2D

 34 37  0  0  0  0  0  0  0  0999 V2000
   11.3324  -12.8429    0.0000 C   0  0  0  0  0  0  0  0  0  0  0  0
    9.9058  -12.3794    0.0000 O   0  0  0  0  0  0  0  0  0  0  0  0
    8.7911  -13.3831    0.0000 C   0  0  0  0  0  0  0  0  0  0  0  0
    9.1029  -14.8503    0.0000 C   0  0  0  0  0  0  0  0  0  0  0  0
    7.9882  -15.8540    0.0000 C   0  0  0  0  0  0  0  0  0  0  0  0
    6.5616  -15.3904    0.0000 C   0  0  0  0  0  0  0  0  0  0  0  0
    6.2498  -13.9232    0.0000 C   0  0  0  0  0  0  0  0  0  0  0  0
    7.3645  -12.9195    0.0000 C   0  0  0  0  0  0  0  0  0  0  0  0
    7.0526  -11.4523    0.0000 N   0  0  0  0  0  0  0  0  0  0  0  0
    8.1673  -10.4486    0.0000 C   0  0  0  0  0  0  0  0  0  0  0  0
    7.8555   -8.9814    0.0000 C   0  0  0  0  0  0  0  0  0  0  0  0
    6.4289   -8.5179    0.0000 N   0  0  0  0  0  0  0  0  0  0  0  0
    6.1170   -7.0506    0.0000 C   0  0  0  0  0  0  0  0  0  0  0  0
    4.6904   -6.5871    0.0000 C   0  0  0  0  0  0  0  0  0  0  0  0
    4.3786   -5.1199    0.0000 C   0  0  0  0  0  0  0  0  0  0  0  0
    2.9520   -4.6564    0.0000 C   0  0  0  0  0  0  0  0  0  0  0  0
    2.6401   -3.1891    0.0000 C   0  0  0  0  0  0  0  0  0  0  0  0
    3.7548   -2.1855    0.0000 O   0  0  0  0  0  0  0  0  0  0  0  0
    1.2135   -2.7256    0.0000 N   0  0  0  0  0  0  0  0  0  0  0  0
    0.7500   -1.2990    0.0000 C   0  0  0  0  0  0  0  0  0  0  0  0
    1.5000    0.0000    0.0000 C   0  0  0  0  0  0  0  0  0  0  0  0
    0.7500    1.2990    0.0000 C   0  0  0  0  0  0  0  0  0  0  0  0
   -0.7500    1.2990    0.0000 C   0  0  0  0  0  0  0  0  0  0  0  0
   -1.5000    0.0000    0.0000 C   0  0  0  0  0  0  0  0  0  0  0  0
   -0.7500   -1.2990    0.0000 C   0  0  0  0  0  0  0  0  0  0  0  0
   -1.2135   -2.7256    0.0000 C   0  0  0  0  0  0  0  0  0  0  0  0
   -2.5838   -3.3357    0.0000 C   0  0  0  0  0  0  0  0  0  0  0  0
   -2.7406   -4.8275    0.0000 C   0  0  0  0  0  0  0  0  0  0  0  0
   -1.5271   -5.7092    0.0000 C   0  0  0  0  0  0  0  0  0  0  0  0
   -0.1568   -5.0991    0.0000 C   0  0  0  0  0  0  0  0  0  0  0  0
   -0.0000   -3.6073    0.0000 C   0  0  0  0  0  0  0  0  0  0  0  0
    5.3142   -9.5216    0.0000 C   0  0  0  0  0  0  0  0  0  0  0  0
    5.6260  -10.9888    0.0000 C   0  0  0  0  0  0  0  0  0  0  0  0
   12.3324    0.0000    0.0000 Cl  0  0  0  0  0  0  0  0  0  0  0  0
  1  2  1  0
  2  3  1  0
  3  4  2  0
  4  5  1  0
  5  6  2  0
  6  7  1  0
  7  8  2  0
  8  9  1  0
  9 10  1  0
 10 11  1  0
 11 12  1  0
 12 13  1  0
 13 14  1  0
 14 15  1  0
 15 16  1  0
 16 17  1  0
 17 18  2  0
 17 19  1  0
 19 20  1  0
 20 21  2  0
 21 22  1  0
 22 23  2  0
 23 24  1  0
 24 25  2  0
 25 26  1  0
 26 27  2  0
 27 28  1  0
 28 29  2  0
 29 30  1  0
 30 31  2  0
 12 32  1  0
 32 33  1  0
  8  3  1  0
 33  9  1  0
 31 19  1  0
 25 20  1  0
 31 26  1  0
M  END
>  <assay_chembl_id>  (504) 
CHEMBL3768260

>  <assay_description>  (504) 
Binding affinity to recombinant 5-HT2B receptor (unknown origin) after 1.5 hrs by radioligand displacement assay

>  <parent_molecule_chembl_id>  (504) 
CHEMBL3765873

>  <canonical_smiles>  (504) 
COc1ccccc1N1CCN(CCCCC(=O)n2c3ccccc3c3ccccc32)CC1.Cl

>  <standard_type>  (504) 
Ki

>  <standard_relation>  (504) 
=

>  <standard_value>  (504) 
93.0

>  <standard_units>  (504) 
nM

>  <target_pref_name>  (504) 
Serotonin 2b (5-HT2b) receptor

>  <target_chembl_id>  (504) 
CHEMBL1833

>  <target_organism>  (504) 
Homo sapiens

>  <pchembl_median>  (504) 
6.57

$$$$
CHEMBL3764650
     RDKit          2D

 35 38  0  0  0  0  0  0  0  0999 V2000
   14.0528   -6.8974    0.0000 C   0  0  0  0  0  0  0  0  0  0  0  0
   12.9381   -7.9010    0.0000 O   0  0  0  0  0  0  0  0  0  0  0  0
   13.2499   -9.3683    0.0000 C   0  0  0  0  0  0  0  0  0  0  0  0
   14.6765   -9.8318    0.0000 C   0  0  0  0  0  0  0  0  0  0  0  0
   14.9884  -11.2990    0.0000 C   0  0  0  0  0  0  0  0  0  0  0  0
   13.8737  -12.3027    0.0000 C   0  0  0  0  0  0  0  0  0  0  0  0
   12.4471  -11.8392    0.0000 C   0  0  0  0  0  0  0  0  0  0  0  0
   12.1352  -10.3720    0.0000 C   0  0  0  0  0  0  0  0  0  0  0  0
   10.7086   -9.9084    0.0000 N   0  0  0  0  0  0  0  0  0  0  0  0
   10.3968   -8.4412    0.0000 C   0  0  0  0  0  0  0  0  0  0  0  0
    8.9702   -7.9777    0.0000 C   0  0  0  0  0  0  0  0  0  0  0  0
    7.8555   -8.9814    0.0000 N   0  0  0  0  0  0  0  0  0  0  0  0
    6.4289   -8.5179    0.0000 C   0  0  0  0  0  0  0  0  0  0  0  0
    6.1170   -7.0506    0.0000 C   0  0  0  0  0  0  0  0  0  0  0  0
    4.6904   -6.5871    0.0000 C   0  0  0  0  0  0  0  0  0  0  0  0
    4.3786   -5.1199    0.0000 C   0  0  0  0  0  0  0  0  0  0  0  0
    2.9520   -4.6564    0.0000 C   0  0  0  0  0  0  0  0  0  0  0  0
    2.6401   -3.1891    0.0000 C   0  0  0  0  0  0  0  0  0  0  0  0
    3.7548   -2.1855    0.0000 O   0  0  0  0  0  0  0  0  0  0  0  0
    1.2135   -2.7256    0.0000 N   0  0  0  0  0  0  0  0  0  0  0  0
    0.7500   -1.2990    0.0000 C   0  0  0  0  0  0  0  0  0  0  0  0
    1.5000    0.0000    0.0000 C   0  0  0  0  0  0  0  0  0  0  0  0
    0.7500    1.2990    0.0000 C   0  0  0  0  0  0  0  0  0  0  0  0
   -0.7500    1.2990    0.0000 C   0  0  0  0  0  0  0  0  0  0  0  0
   -1.5000    0.0000    0.0000 C   0  0  0  0  0  0  0  0  0  0  0  0
   -0.7500   -1.2990    0.0000 C   0  0  0  0  0  0  0  0  0  0  0  0
   -1.2135   -2.7256    0.0000 C   0  0  0  0  0  0  0  0  0  0  0  0
   -2.5838   -3.3357    0.0000 C   0  0  0  0  0  0  0  0  0  0  0  0
   -2.7406   -4.8275    0.0000 C   0  0  0  0  0  0  0  0  0  0  0  0
   -1.5271   -5.7092    0.0000 C   0  0  0  0  0  0  0  0  0  0  0  0
   -0.1568   -5.0991    0.0000 C   0  0  0  0  0  0  0  0  0  0  0  0
   -0.0000   -3.6073    0.0000 C   0  0  0  0  0  0  0  0  0  0  0  0
    8.1673  -10.4486    0.0000 C   0  0  0  0  0  0  0  0  0  0  0  0
    9.5939  -10.9121    0.0000 C   0  0  0  0  0  0  0  0  0  0  0  0
    0.0000    2.2990    0.0000 Cl  0  0  0  0  0  0  0  0  0  0  0  0
  1  2  1  0
  2  3  1  0
  3  4  2  0
  4  5  1  0
  5  6  2  0
  6  7  1  0
  7  8  2  0
  8  9  1  0
  9 10  1  0
 10 11  1  0
 11 12  1  0
 12 13  1  0
 13 14  1  0
 14 15  1  0
 15 16  1  0
 16 17  1  0
 17 18  1  0
 18 19  2  0
 18 20  1  0
 20 21  1  0
 21 22  2  0
 22 23  1  0
 23 24  2  0
 24 25  1  0
 25 26  2  0
 26 27  1  0
 27 28  2  0
 28 29  1  0
 29 30  2  0
 30 31  1  0
 31 32  2  0
 12 33  1  0
 33 34  1  0
  8  3  1  0
 34  9  1  0
 32 20  1  0
 26 21  1  0
 32 27  1  0
M  END
>  <assay_chembl_id>  (505) 
CHEMBL3768260

>  <assay_description>  (505) 
Binding affinity to recombinant 5-HT2B receptor (unknown origin) after 1.5 hrs by radioligand displacement assay

>  <parent_molecule_chembl_id>  (505) 
CHEMBL3765874

>  <canonical_smiles>  (505) 
COc1ccccc1N1CCN(CCCCCC(=O)n2c3ccccc3c3ccccc32)CC1.Cl

>  <standard_type>  (505) 
Ki

>  <standard_relation>  (505) 
=

>  <standard_value>  (505) 
419.0

>  <standard_units>  (505) 
nM

>  <target_pref_name>  (505) 
Serotonin 2b (5-HT2b) receptor

>  <target_chembl_id>  (505) 
CHEMBL1833

>  <target_organism>  (505) 
Homo sapiens

>  <pchembl_median>  (505) 
5.35

$$$$
CHEMBL3764335
     RDKit          2D

 34 37  0  0  0  0  0  0  0  0999 V2000
    0.0000    2.2990    0.0000 Cl  0  0  0  0  0  0  0  0  0  0  0  0
    3.7548   -2.1855    0.0000 O   0  0  0  0  0  0  0  0  0  0  0  0
    2.6401   -3.1891    0.0000 C   0  0  0  0  0  0  0  0  0  0  0  0
    2.9520   -4.6564    0.0000 C   0  0  0  0  0  0  0  0  0  0  0  0
    4.3786   -5.1199    0.0000 C   0  0  0  0  0  0  0  0  0  0  0  0
    4.6904   -6.5871    0.0000 C   0  0  0  0  0  0  0  0  0  0  0  0
    6.1170   -7.0506    0.0000 C   0  0  0  0  0  0  0  0  0  0  0  0
    6.4289   -8.5179    0.0000 C   0  0  0  0  0  0  0  0  0  0  0  0
    7.8555   -8.9814    0.0000 N   0  0  0  0  0  0  0  0  0  0  0  0
    8.1673  -10.4486    0.0000 C   0  0  0  0  0  0  0  0  0  0  0  0
    9.5939  -10.9121    0.0000 C   0  0  0  0  0  0  0  0  0  0  0  0
   10.7086   -9.9084    0.0000 N   0  0  0  0  0  0  0  0  0  0  0  0
   12.1352  -10.3720    0.0000 C   0  0  0  0  0  0  0  0  0  0  0  0
   12.4471  -11.8392    0.0000 C   0  0  0  0  0  0  0  0  0  0  0  0
   13.8737  -12.3027    0.0000 C   0  0  0  0  0  0  0  0  0  0  0  0
   14.9884  -11.2990    0.0000 C   0  0  0  0  0  0  0  0  0  0  0  0
   14.6765   -9.8318    0.0000 C   0  0  0  0  0  0  0  0  0  0  0  0
   13.2499   -9.3683    0.0000 C   0  0  0  0  0  0  0  0  0  0  0  0
   12.9381   -7.9010    0.0000 O   0  0  0  0  0  0  0  0  0  0  0  0
   10.3968   -8.4412    0.0000 C   0  0  0  0  0  0  0  0  0  0  0  0
    8.9702   -7.9777    0.0000 C   0  0  0  0  0  0  0  0  0  0  0  0
    1.2135   -2.7256    0.0000 N   0  0  0  0  0  0  0  0  0  0  0  0
    0.7500   -1.2990    0.0000 C   0  0  0  0  0  0  0  0  0  0  0  0
    1.5000    0.0000    0.0000 C   0  0  0  0  0  0  0  0  0  0  0  0
    0.7500    1.2990    0.0000 C   0  0  0  0  0  0  0  0  0  0  0  0
   -0.7500    1.2990    0.0000 C   0  0  0  0  0  0  0  0  0  0  0  0
   -1.5000    0.0000    0.0000 C   0  0  0  0  0  0  0  0  0  0  0  0
   -0.7500   -1.2990    0.0000 C   0  0  0  0  0  0  0  0  0  0  0  0
   -1.2135   -2.7256    0.0000 C   0  0  0  0  0  0  0  0  0  0  0  0
   -2.5838   -3.3357    0.0000 C   0  0  0  0  0  0  0  0  0  0  0  0
   -2.7406   -4.8275    0.0000 C   0  0  0  0  0  0  0  0  0  0  0  0
   -1.5271   -5.7092    0.0000 C   0  0  0  0  0  0  0  0  0  0  0  0
   -0.1568   -5.0991    0.0000 C   0  0  0  0  0  0  0  0  0  0  0  0
   -0.0000   -3.6073    0.0000 C   0  0  0  0  0  0  0  0  0  0  0  0
  2  3  2  0
  3  4  1  0
  4  5  1  0
  5  6  1  0
  6  7  1  0
  7  8  1  0
  8  9  1  0
  9 10  1  0
 10 11  1  0
 11 12  1  0
 12 13  1  0
 13 14  2  0
 14 15  1  0
 15 16  2  0
 16 17  1  0
 17 18  2  0
 18 19  1  0
 12 20  1  0
 20 21  1  0
  3 22  1  0
 22 23  1  0
 23 24  2  0
 24 25  1  0
 25 26  2  0
 26 27  1  0
 27 28  2  0
 28 29  1  0
 29 30  2  0
 30 31  1  0
 31 32  2  0
 32 33  1  0
 33 34  2  0
 21  9  1  0
 34 22  1  0
 18 13  1  0
 28 23  1  0
 34 29  1  0
M  END
>  <assay_chembl_id>  (506) 
CHEMBL3768260

>  <assay_description>  (506) 
Binding affinity to recombinant 5-HT2B receptor (unknown origin) after 1.5 hrs by radioligand displacement assay

>  <parent_molecule_chembl_id>  (506) 
CHEMBL3765876

>  <canonical_smiles>  (506) 
Cl.O=C(CCCCCN1CCN(c2ccccc2O)CC1)n1c2ccccc2c2ccccc21

>  <standard_type>  (506) 
Ki

>  <standard_relation>  (506) 
=

>  <standard_value>  (506) 
101.0

>  <standard_units>  (506) 
nM

>  <target_pref_name>  (506) 
Serotonin 2b (5-HT2b) receptor

>  <target_chembl_id>  (506) 
CHEMBL1833

>  <target_organism>  (506) 
Homo sapiens

>  <pchembl_median>  (506) 
5.89

$$$$
CHEMBL582877
     RDKit          2D

 17 18  0  0  0  0  0  0  0  0999 V2000
    2.6491    0.9642    0.0000 C   0  0  0  0  0  0  0  0  0  0  0  0
    1.5000    0.0000    0.0000 C   0  0  0  0  0  0  0  0  0  0  0  0
    2.6491   -0.9642    0.0000 C   0  0  0  0  0  0  0  0  0  0  0  0
    0.7500   -1.2990    0.0000 N   0  0  0  0  0  0  0  0  0  0  0  0
   -0.7500   -1.2990    0.0000 C   0  0  0  0  0  0  0  0  0  0  0  0
   -1.5000   -2.5981    0.0000 N   0  0  0  0  0  0  0  0  0  0  0  0
   -1.5000    0.0000    0.0000 N   0  0  0  0  0  0  0  0  0  0  0  0
   -0.7500    1.2990    0.0000 C   0  0  0  0  0  0  0  0  0  0  0  0
   -1.5000    2.5981    0.0000 N   0  0  0  0  0  0  0  0  0  0  0  0
   -0.7500    3.8971    0.0000 C   0  0  0  0  0  0  0  0  0  0  0  0
    0.7500    3.8971    0.0000 C   0  0  0  0  0  0  0  0  0  0  0  0
    1.5000    5.1962    0.0000 C   0  0  0  0  0  0  0  0  0  0  0  0
    0.7500    6.4952    0.0000 C   0  0  0  0  0  0  0  0  0  0  0  0
   -0.7500    6.4952    0.0000 C   0  0  0  0  0  0  0  0  0  0  0  0
   -1.5000    7.7942    0.0000 Br  0  0  0  0  0  0  0  0  0  0  0  0
   -1.5000    5.1962    0.0000 C   0  0  0  0  0  0  0  0  0  0  0  0
    0.7500    1.2990    0.0000 N   0  0  0  0  0  0  0  0  0  0  0  0
  1  2  1  0
  2  3  1  0
  2  4  1  0
  4  5  2  0
  5  6  1  0
  5  7  1  0
  7  8  2  0
  8  9  1  0
  9 10  1  0
 10 11  2  0
 11 12  1  0
 12 13  2  0
 13 14  1  0
 14 15  1  0
 14 16  2  0
  8 17  1  0
 17  2  1  0
 16 10  1  0
M  END
>  <assay_chembl_id>  (507) 
CHEMBL3773612

>  <assay_description>  (507) 
Displacement of [3H]LSD from 5-HT2B receptor (unknown origin) after 1.5 hrs by microbeta scintillation counting method

>  <parent_molecule_chembl_id>  (507) 
CHEMBL582877

>  <canonical_smiles>  (507) 
CC1(C)N=C(N)N=C(Nc2cccc(Br)c2)N1

>  <standard_type>  (507) 
Ki

>  <standard_relation>  (507) 
=

>  <standard_value>  (507) 
20.5

>  <standard_units>  (507) 
nM

>  <target_pref_name>  (507) 
Serotonin 2b (5-HT2b) receptor

>  <target_chembl_id>  (507) 
CHEMBL1833

>  <target_organism>  (507) 
Homo sapiens

>  <pchembl_median>  (507) 
6.68

$$$$
CHEMBL3770106
     RDKit          2D

 24 26  0  0  0  0  0  0  0  0999 V2000
   -8.2500   -9.0933    0.0000 C   0  0  0  0  0  0  0  0  0  0  0  0
   -6.7500   -9.0933    0.0000 C   0  0  0  0  0  0  0  0  0  0  0  0
   -6.0000   -7.7942    0.0000 O   0  0  0  0  0  0  0  0  0  0  0  0
   -4.5000   -7.7942    0.0000 C   0  0  0  0  0  0  0  0  0  0  0  0
   -3.7500   -9.0933    0.0000 O   0  0  0  0  0  0  0  0  0  0  0  0
   -3.7500   -6.4952    0.0000 C   0  0  0  0  0  0  0  0  0  0  0  0
   -4.5000   -5.1962    0.0000 C   0  0  0  0  0  0  0  0  0  0  0  0
   -3.7500   -3.8971    0.0000 C   0  0  0  0  0  0  0  0  0  0  0  0
   -2.2500   -3.8971    0.0000 C   0  0  0  0  0  0  0  0  0  0  0  0
   -1.5000   -5.1962    0.0000 C   0  0  0  0  0  0  0  0  0  0  0  0
   -0.0000   -5.1962    0.0000 N   0  0  0  0  0  0  0  0  0  0  0  0
    0.7500   -3.8971    0.0000 C   0  0  0  0  0  0  0  0  0  0  0  0
    2.2500   -3.8971    0.0000 N   0  0  0  0  0  0  0  0  0  0  0  0
    3.0000   -2.5981    0.0000 C   0  0  0  0  0  0  0  0  0  0  0  0
    4.5000   -2.5981    0.0000 N   0  0  0  0  0  0  0  0  0  0  0  0
    2.2500   -1.2990    0.0000 N   0  0  0  0  0  0  0  0  0  0  0  0
    0.7500   -1.2990    0.0000 C   0  0  0  0  0  0  0  0  0  0  0  0
    1.5000    0.0000    0.0000 C   0  0  0  0  0  0  0  0  0  0  0  0
    0.7500    1.2990    0.0000 C   0  0  0  0  0  0  0  0  0  0  0  0
   -0.7500    1.2990    0.0000 C   0  0  0  0  0  0  0  0  0  0  0  0
   -1.5000    0.0000    0.0000 C   0  0  0  0  0  0  0  0  0  0  0  0
   -0.7500   -1.2990    0.0000 C   0  0  0  0  0  0  0  0  0  0  0  0
   -0.0000   -2.5981    0.0000 N   0  0  0  0  0  0  0  0  0  0  0  0
   -2.2500   -6.4952    0.0000 C   0  0  0  0  0  0  0  0  0  0  0  0
  1  2  1  0
  2  3  1  0
  3  4  1  0
  4  5  2  0
  4  6  1  0
  6  7  2  0
  7  8  1  0
  8  9  2  0
  9 10  1  0
 10 11  1  0
 11 12  1  0
 12 13  2  0
 13 14  1  0
 14 15  1  0
 14 16  2  0
 16 17  1  0
 17 18  1  0
 18 19  1  0
 19 20  1  0
 20 21  1  0
 21 22  1  0
 17 23  1  0
 10 24  2  0
 24  6  1  0
 23 12  1  0
 22 17  1  0
M  END
>  <assay_chembl_id>  (508) 
CHEMBL3773612

>  <assay_description>  (508) 
Displacement of [3H]LSD from 5-HT2B receptor (unknown origin) after 1.5 hrs by microbeta scintillation counting method

>  <parent_molecule_chembl_id>  (508) 
CHEMBL3770106

>  <canonical_smiles>  (508) 
CCOC(=O)c1cccc(NC2=NC(N)=NC3(CCCCC3)N2)c1

>  <standard_type>  (508) 
Ki

>  <standard_relation>  (508) 
=

>  <standard_value>  (508) 
7.2

>  <standard_units>  (508) 
nM

>  <target_pref_name>  (508) 
Serotonin 2b (5-HT2b) receptor

>  <target_chembl_id>  (508) 
CHEMBL1833

>  <target_organism>  (508) 
Homo sapiens

>  <pchembl_median>  (508) 
6.52

$$$$
CHEMBL3770981
     RDKit          2D

 26 28  0  0  0  0  0  0  0  0999 V2000
   -8.2500   -9.0933    0.0000 C   0  0  0  0  0  0  0  0  0  0  0  0
   -6.7500   -9.0933    0.0000 C   0  0  0  0  0  0  0  0  0  0  0  0
   -6.0000   -7.7942    0.0000 O   0  0  0  0  0  0  0  0  0  0  0  0
   -4.5000   -7.7942    0.0000 C   0  0  0  0  0  0  0  0  0  0  0  0
   -3.7500   -9.0933    0.0000 O   0  0  0  0  0  0  0  0  0  0  0  0
   -3.7500   -6.4952    0.0000 C   0  0  0  0  0  0  0  0  0  0  0  0
   -4.5000   -5.1962    0.0000 C   0  0  0  0  0  0  0  0  0  0  0  0
   -3.7500   -3.8971    0.0000 C   0  0  0  0  0  0  0  0  0  0  0  0
   -2.2500   -3.8971    0.0000 C   0  0  0  0  0  0  0  0  0  0  0  0
   -1.5000   -5.1962    0.0000 C   0  0  0  0  0  0  0  0  0  0  0  0
   -0.0000   -5.1962    0.0000 N   0  0  0  0  0  0  0  0  0  0  0  0
    0.7500   -3.8971    0.0000 C   0  0  0  0  0  0  0  0  0  0  0  0
    2.2500   -3.8971    0.0000 N   0  0  0  0  0  0  0  0  0  0  0  0
    3.0000   -2.5981    0.0000 C   0  0  0  0  0  0  0  0  0  0  0  0
    4.5000   -2.5981    0.0000 N   0  0  0  0  0  0  0  0  0  0  0  0
    5.2500   -3.8971    0.0000 C   0  0  0  0  0  0  0  0  0  0  0  0
    5.2500   -1.2990    0.0000 C   0  0  0  0  0  0  0  0  0  0  0  0
    2.2500   -1.2990    0.0000 N   0  0  0  0  0  0  0  0  0  0  0  0
    0.7500   -1.2990    0.0000 C   0  0  0  0  0  0  0  0  0  0  0  0
    1.5000    0.0000    0.0000 C   0  0  0  0  0  0  0  0  0  0  0  0
    0.7500    1.2990    0.0000 C   0  0  0  0  0  0  0  0  0  0  0  0
   -0.7500    1.2990    0.0000 C   0  0  0  0  0  0  0  0  0  0  0  0
   -1.5000    0.0000    0.0000 C   0  0  0  0  0  0  0  0  0  0  0  0
   -0.7500   -1.2990    0.0000 C   0  0  0  0  0  0  0  0  0  0  0  0
   -0.0000   -2.5981    0.0000 N   0  0  0  0  0  0  0  0  0  0  0  0
   -2.2500   -6.4952    0.0000 C   0  0  0  0  0  0  0  0  0  0  0  0
  1  2  1  0
  2  3  1  0
  3  4  1  0
  4  5  2  0
  4  6  1  0
  6  7  2  0
  7  8  1  0
  8  9  2  0
  9 10  1  0
 10 11  1  0
 11 12  1  0
 12 13  2  0
 13 14  1  0
 14 15  1  0
 15 16  1  0
 15 17  1  0
 14 18  2  0
 18 19  1  0
 19 20  1  0
 20 21  1  0
 21 22  1  0
 22 23  1  0
 23 24  1  0
 19 25  1  0
 10 26  2  0
 26  6  1  0
 25 12  1  0
 24 19  1  0
M  END
>  <assay_chembl_id>  (509) 
CHEMBL3773612

>  <assay_description>  (509) 
Displacement of [3H]LSD from 5-HT2B receptor (unknown origin) after 1.5 hrs by microbeta scintillation counting method

>  <parent_molecule_chembl_id>  (509) 
CHEMBL3770981

>  <canonical_smiles>  (509) 
CCOC(=O)c1cccc(NC2=NC(N(C)C)=NC3(CCCCC3)N2)c1

>  <standard_type>  (509) 
Ki

>  <standard_relation>  (509) 
=

>  <standard_value>  (509) 
38.5

>  <standard_units>  (509) 
nM

>  <target_pref_name>  (509) 
Serotonin 2b (5-HT2b) receptor

>  <target_chembl_id>  (509) 
CHEMBL1833

>  <target_organism>  (509) 
Homo sapiens

>  <pchembl_median>  (509) 
7.19

$$$$
CHEMBL3770342
     RDKit          2D

 20 22  0  0  0  0  0  0  0  0999 V2000
   -0.0000   -5.1962    0.0000 N   0  0  0  0  0  0  0  0  0  0  0  0
    0.7500   -3.8971    0.0000 C   0  0  0  0  0  0  0  0  0  0  0  0
   -0.0000   -2.5981    0.0000 N   0  0  0  0  0  0  0  0  0  0  0  0
    0.7500   -1.2990    0.0000 C   0  0  0  0  0  0  0  0  0  0  0  0
    1.5000    0.0000    0.0000 C   0  0  0  0  0  0  0  0  0  0  0  0
    0.7500    1.2990    0.0000 C   0  0  0  0  0  0  0  0  0  0  0  0
   -0.7500    1.2990    0.0000 C   0  0  0  0  0  0  0  0  0  0  0  0
   -1.5000    0.0000    0.0000 C   0  0  0  0  0  0  0  0  0  0  0  0
   -0.7500   -1.2990    0.0000 C   0  0  0  0  0  0  0  0  0  0  0  0
    2.2500   -1.2990    0.0000 N   0  0  0  0  0  0  0  0  0  0  0  0
    3.0000   -2.5981    0.0000 C   0  0  0  0  0  0  0  0  0  0  0  0
    4.5000   -2.5981    0.0000 N   0  0  0  0  0  0  0  0  0  0  0  0
    5.2500   -3.8971    0.0000 C   0  0  0  0  0  0  0  0  0  0  0  0
    4.5000   -5.1962    0.0000 C   0  0  0  0  0  0  0  0  0  0  0  0
    5.2500   -6.4952    0.0000 C   0  0  0  0  0  0  0  0  0  0  0  0
    6.7500   -6.4952    0.0000 C   0  0  0  0  0  0  0  0  0  0  0  0
    7.5000   -5.1962    0.0000 C   0  0  0  0  0  0  0  0  0  0  0  0
    9.0000   -5.1962    0.0000 Br  0  0  0  0  0  0  0  0  0  0  0  0
    6.7500   -3.8971    0.0000 C   0  0  0  0  0  0  0  0  0  0  0  0
    2.2500   -3.8971    0.0000 N   0  0  0  0  0  0  0  0  0  0  0  0
  1  2  1  0
  2  3  2  0
  3  4  1  0
  4  5  1  0
  5  6  1  0
  6  7  1  0
  7  8  1  0
  8  9  1  0
  4 10  1  0
 10 11  1  0
 11 12  1  0
 12 13  1  0
 13 14  2  0
 14 15  1  0
 15 16  2  0
 16 17  1  0
 17 18  1  0
 17 19  2  0
 11 20  2  0
 20  2  1  0
  9  4  1  0
 19 13  1  0
M  END
>  <assay_chembl_id>  (510) 
CHEMBL3773612

>  <assay_description>  (510) 
Displacement of [3H]LSD from 5-HT2B receptor (unknown origin) after 1.5 hrs by microbeta scintillation counting method

>  <parent_molecule_chembl_id>  (510) 
CHEMBL3770342

>  <canonical_smiles>  (510) 
NC1=NC2(CCCCC2)NC(Nc2cccc(Br)c2)=N1

>  <standard_type>  (510) 
Ki

>  <standard_relation>  (510) 
=

>  <standard_value>  (510) 
6.2

>  <standard_units>  (510) 
nM

>  <target_pref_name>  (510) 
Serotonin 2b (5-HT2b) receptor

>  <target_chembl_id>  (510) 
CHEMBL1833

>  <target_organism>  (510) 
Homo sapiens

>  <pchembl_median>  (510) 
6.38

$$$$
CHEMBL3771331
     RDKit          2D

 24 26  0  0  0  0  0  0  0  0999 V2000
   -8.2500   -9.0933    0.0000 C   0  0  0  0  0  0  0  0  0  0  0  0
   -6.7500   -9.0933    0.0000 C   0  0  0  0  0  0  0  0  0  0  0  0
   -6.0000   -7.7942    0.0000 N   0  0  0  0  0  0  0  0  0  0  0  0
   -4.5000   -7.7942    0.0000 C   0  0  0  0  0  0  0  0  0  0  0  0
   -3.7500   -9.0933    0.0000 O   0  0  0  0  0  0  0  0  0  0  0  0
   -3.7500   -6.4952    0.0000 C   0  0  0  0  0  0  0  0  0  0  0  0
   -4.5000   -5.1962    0.0000 C   0  0  0  0  0  0  0  0  0  0  0  0
   -3.7500   -3.8971    0.0000 C   0  0  0  0  0  0  0  0  0  0  0  0
   -2.2500   -3.8971    0.0000 C   0  0  0  0  0  0  0  0  0  0  0  0
   -1.5000   -5.1962    0.0000 C   0  0  0  0  0  0  0  0  0  0  0  0
   -0.0000   -5.1962    0.0000 N   0  0  0  0  0  0  0  0  0  0  0  0
    0.7500   -3.8971    0.0000 C   0  0  0  0  0  0  0  0  0  0  0  0
    2.2500   -3.8971    0.0000 N   0  0  0  0  0  0  0  0  0  0  0  0
    3.0000   -2.5981    0.0000 C   0  0  0  0  0  0  0  0  0  0  0  0
    4.5000   -2.5981    0.0000 N   0  0  0  0  0  0  0  0  0  0  0  0
    2.2500   -1.2990    0.0000 N   0  0  0  0  0  0  0  0  0  0  0  0
    0.7500   -1.2990    0.0000 C   0  0  0  0  0  0  0  0  0  0  0  0
    1.5000    0.0000    0.0000 C   0  0  0  0  0  0  0  0  0  0  0  0
    0.7500    1.2990    0.0000 C   0  0  0  0  0  0  0  0  0  0  0  0
   -0.7500    1.2990    0.0000 C   0  0  0  0  0  0  0  0  0  0  0  0
   -1.5000    0.0000    0.0000 C   0  0  0  0  0  0  0  0  0  0  0  0
   -0.7500   -1.2990    0.0000 C   0  0  0  0  0  0  0  0  0  0  0  0
   -0.0000   -2.5981    0.0000 N   0  0  0  0  0  0  0  0  0  0  0  0
   -2.2500   -6.4952    0.0000 C   0  0  0  0  0  0  0  0  0  0  0  0
  1  2  1  0
  2  3  1  0
  3  4  1  0
  4  5  2  0
  4  6  1  0
  6  7  2  0
  7  8  1  0
  8  9  2  0
  9 10  1  0
 10 11  1  0
 11 12  1  0
 12 13  2  0
 13 14  1  0
 14 15  1  0
 14 16  2  0
 16 17  1  0
 17 18  1  0
 18 19  1  0
 19 20  1  0
 20 21  1  0
 21 22  1  0
 17 23  1  0
 10 24  2  0
 24  6  1  0
 23 12  1  0
 22 17  1  0
M  END
>  <assay_chembl_id>  (511) 
CHEMBL3773612

>  <assay_description>  (511) 
Displacement of [3H]LSD from 5-HT2B receptor (unknown origin) after 1.5 hrs by microbeta scintillation counting method

>  <parent_molecule_chembl_id>  (511) 
CHEMBL3771331

>  <canonical_smiles>  (511) 
CCNC(=O)c1cccc(NC2=NC(N)=NC3(CCCCC3)N2)c1

>  <standard_type>  (511) 
Ki

>  <standard_relation>  (511) 
=

>  <standard_value>  (511) 
27.5

>  <standard_units>  (511) 
nM

>  <target_pref_name>  (511) 
Serotonin 2b (5-HT2b) receptor

>  <target_chembl_id>  (511) 
CHEMBL1833

>  <target_organism>  (511) 
Homo sapiens

>  <pchembl_median>  (511) 
7.08

$$$$
CHEMBL3735756
     RDKit          2D

 33 36  0  0  0  0  0  0  0  0999 V2000
   -3.3081   15.0353    0.0000 C   0  0  0  0  0  0  0  0  0  0  0  0
   -3.6200   13.5681    0.0000 O   0  0  0  0  0  0  0  0  0  0  0  0
   -2.5052   12.5644    0.0000 C   0  0  0  0  0  0  0  0  0  0  0  0
   -1.0786   13.0279    0.0000 C   0  0  0  0  0  0  0  0  0  0  0  0
    0.0361   12.0242    0.0000 C   0  0  0  0  0  0  0  0  0  0  0  0
   -0.2758   10.5570    0.0000 C   0  0  0  0  0  0  0  0  0  0  0  0
    0.8389    9.5533    0.0000 C   0  0  0  0  0  0  0  0  0  0  0  0
    0.5271    8.0861    0.0000 C   0  0  0  0  0  0  0  0  0  0  0  0
    1.6418    7.0824    0.0000 N   0  0  0  0  0  0  0  0  0  0  0  0
    3.0684    7.5459    0.0000 C   0  0  0  0  0  0  0  0  0  0  0  0
    3.3802    9.0132    0.0000 C   0  0  0  0  0  0  0  0  0  0  0  0
    4.8068    9.4767    0.0000 C   0  0  0  0  0  0  0  0  0  0  0  0
    5.1187   10.9439    0.0000 C   0  0  0  0  0  0  0  0  0  0  0  0
    6.5453   11.4074    0.0000 C   0  0  0  0  0  0  0  0  0  0  0  0
    6.8571   12.8747    0.0000 C   0  0  0  0  0  0  0  0  0  0  0  0
    5.7424   13.8783    0.0000 C   0  0  0  0  0  0  0  0  0  0  0  0
    4.3158   13.4148    0.0000 C   0  0  0  0  0  0  0  0  0  0  0  0
    4.0040   11.9476    0.0000 C   0  0  0  0  0  0  0  0  0  0  0  0
    1.3299    5.6152    0.0000 C   0  0  0  0  0  0  0  0  0  0  0  0
   -0.0967    5.1517    0.0000 C   0  0  0  0  0  0  0  0  0  0  0  0
   -0.4086    3.6844    0.0000 C   0  0  0  0  0  0  0  0  0  0  0  0
   -1.8351    3.2209    0.0000 C   0  0  0  0  0  0  0  0  0  0  0  0
   -2.1470    1.7537    0.0000 C   0  0  0  0  0  0  0  0  0  0  0  0
   -1.0323    0.7500    0.0000 C   0  0  0  0  0  0  0  0  0  0  0  0
    0.3943    1.2135    0.0000 C   0  0  0  0  0  0  0  0  0  0  0  0
    0.7062    2.6807    0.0000 C   0  0  0  0  0  0  0  0  0  0  0  0
    1.2760    0.0000    0.0000 O   0  0  0  0  0  0  0  0  0  0  0  0
    0.3943   -1.2135    0.0000 C   0  0  0  0  0  0  0  0  0  0  0  0
   -1.0323   -0.7500    0.0000 O   0  0  0  0  0  0  0  0  0  0  0  0
   -1.7024   10.0935    0.0000 C   0  0  0  0  0  0  0  0  0  0  0  0
   -2.8171   11.0972    0.0000 C   0  0  0  0  0  0  0  0  0  0  0  0
   -4.2437   10.6337    0.0000 O   0  0  0  0  0  0  0  0  0  0  0  0
   -4.5556    9.1664    0.0000 C   0  0  0  0  0  0  0  0  0  0  0  0
  1  2  1  0
  2  3  1  0
  3  4  2  0
  4  5  1  0
  5  6  2  0
  6  7  1  0
  7  8  1  0
  8  9  1  0
  9 10  1  0
 10 11  1  0
 11 12  1  0
 12 13  1  0
 13 14  2  0
 14 15  1  0
 15 16  2  0
 16 17  1  0
 17 18  2  0
  9 19  1  0
 19 20  1  0
 20 21  1  0
 21 22  2  0
 22 23  1  0
 23 24  2  0
 24 25  1  0
 25 26  2  0
 25 27  1  0
 27 28  1  0
 28 29  1  0
  6 30  1  0
 30 31  2  0
 31 32  1  0
 32 33  1  0
 31  3  1  0
 18 13  1  0
 26 21  1  0
 29 24  1  0
M  END
>  <assay_chembl_id>  (512) 
CHEMBL3816813

>  <assay_description>  (512) 
Displacement of [3H]LSD from human 5-HT2B receptor measured after 90 mins by microbeta scintillation counting method

>  <parent_molecule_chembl_id>  (512) 
CHEMBL3735756

>  <canonical_smiles>  (512) 
COc1ccc(CCN(CCCc2ccccc2)CCc2ccc3c(c2)OCO3)cc1OC

>  <standard_type>  (512) 
Ki

>  <standard_relation>  (512) 
=

>  <standard_value>  (512) 
26.0

>  <standard_units>  (512) 
nM

>  <target_pref_name>  (512) 
Serotonin 2b (5-HT2b) receptor

>  <target_chembl_id>  (512) 
CHEMBL1833

>  <target_organism>  (512) 
Homo sapiens

>  <pchembl_median>  (512) 
8.6

$$$$
CHEMBL3814737
     RDKit          2D

 34 37  0  0  0  0  0  0  0  0999 V2000
   -3.3081   15.0353    0.0000 C   0  0  0  0  0  0  0  0  0  0  0  0
   -3.6200   13.5681    0.0000 O   0  0  0  0  0  0  0  0  0  0  0  0
   -2.5052   12.5644    0.0000 C   0  0  0  0  0  0  0  0  0  0  0  0
   -1.0786   13.0279    0.0000 C   0  0  0  0  0  0  0  0  0  0  0  0
    0.0361   12.0242    0.0000 C   0  0  0  0  0  0  0  0  0  0  0  0
   -0.2758   10.5570    0.0000 C   0  0  0  0  0  0  0  0  0  0  0  0
    0.8389    9.5533    0.0000 C   0  0  0  0  0  0  0  0  0  0  0  0
    0.5271    8.0861    0.0000 C   0  0  0  0  0  0  0  0  0  0  0  0
    1.6418    7.0824    0.0000 N   0  0  0  0  0  0  0  0  0  0  0  0
    3.0684    7.5459    0.0000 C   0  0  0  0  0  0  0  0  0  0  0  0
    3.3802    9.0132    0.0000 C   0  0  0  0  0  0  0  0  0  0  0  0
    4.8068    9.4767    0.0000 C   0  0  0  0  0  0  0  0  0  0  0  0
    5.1187   10.9439    0.0000 C   0  0  0  0  0  0  0  0  0  0  0  0
    6.5453   11.4074    0.0000 C   0  0  0  0  0  0  0  0  0  0  0  0
    6.8571   12.8747    0.0000 C   0  0  0  0  0  0  0  0  0  0  0  0
    5.7424   13.8783    0.0000 C   0  0  0  0  0  0  0  0  0  0  0  0
    6.0543   15.3456    0.0000 F   0  0  0  0  0  0  0  0  0  0  0  0
    4.3158   13.4148    0.0000 C   0  0  0  0  0  0  0  0  0  0  0  0
    4.0040   11.9476    0.0000 C   0  0  0  0  0  0  0  0  0  0  0  0
    1.3299    5.6152    0.0000 C   0  0  0  0  0  0  0  0  0  0  0  0
   -0.0967    5.1517    0.0000 C   0  0  0  0  0  0  0  0  0  0  0  0
   -0.4086    3.6844    0.0000 C   0  0  0  0  0  0  0  0  0  0  0  0
   -1.8351    3.2209    0.0000 C   0  0  0  0  0  0  0  0  0  0  0  0
   -2.1470    1.7537    0.0000 C   0  0  0  0  0  0  0  0  0  0  0  0
   -1.0323    0.7500    0.0000 C   0  0  0  0  0  0  0  0  0  0  0  0
    0.3943    1.2135    0.0000 C   0  0  0  0  0  0  0  0  0  0  0  0
    0.7062    2.6807    0.0000 C   0  0  0  0  0  0  0  0  0  0  0  0
    1.2760    0.0000    0.0000 O   0  0  0  0  0  0  0  0  0  0  0  0
    0.3943   -1.2135    0.0000 C   0  0  0  0  0  0  0  0  0  0  0  0
   -1.0323   -0.7500    0.0000 O   0  0  0  0  0  0  0  0  0  0  0  0
   -1.7024   10.0935    0.0000 C   0  0  0  0  0  0  0  0  0  0  0  0
   -2.8171   11.0972    0.0000 C   0  0  0  0  0  0  0  0  0  0  0  0
   -4.2437   10.6337    0.0000 O   0  0  0  0  0  0  0  0  0  0  0  0
   -4.5556    9.1664    0.0000 C   0  0  0  0  0  0  0  0  0  0  0  0
  1  2  1  0
  2  3  1  0
  3  4  2  0
  4  5  1  0
  5  6  2  0
  6  7  1  0
  7  8  1  0
  8  9  1  0
  9 10  1  0
 10 11  1  0
 11 12  1  0
 12 13  1  0
 13 14  2  0
 14 15  1  0
 15 16  2  0
 16 17  1  0
 16 18  1  0
 18 19  2  0
  9 20  1  0
 20 21  1  0
 21 22  1  0
 22 23  2  0
 23 24  1  0
 24 25  2  0
 25 26  1  0
 26 27  2  0
 26 28  1  0
 28 29  1  0
 29 30  1  0
  6 31  1  0
 31 32  2  0
 32 33  1  0
 33 34  1  0
 32  3  1  0
 19 13  1  0
 27 22  1  0
 30 25  1  0
M  END
>  <assay_chembl_id>  (513) 
CHEMBL3816813

>  <assay_description>  (513) 
Displacement of [3H]LSD from human 5-HT2B receptor measured after 90 mins by microbeta scintillation counting method

>  <parent_molecule_chembl_id>  (513) 
CHEMBL3814737

>  <canonical_smiles>  (513) 
COc1ccc(CCN(CCCc2ccc(F)cc2)CCc2ccc3c(c2)OCO3)cc1OC

>  <standard_type>  (513) 
Ki

>  <standard_relation>  (513) 
=

>  <standard_value>  (513) 
14.0

>  <standard_units>  (513) 
nM

>  <target_pref_name>  (513) 
Serotonin 2b (5-HT2b) receptor

>  <target_chembl_id>  (513) 
CHEMBL1833

>  <target_organism>  (513) 
Homo sapiens

>  <pchembl_median>  (513) 
5.65

$$$$
CHEMBL3814708
     RDKit          2D

 34 37  0  0  0  0  0  0  0  0999 V2000
   -3.3081   15.0353    0.0000 C   0  0  0  0  0  0  0  0  0  0  0  0
   -3.6200   13.5681    0.0000 O   0  0  0  0  0  0  0  0  0  0  0  0
   -2.5052   12.5644    0.0000 C   0  0  0  0  0  0  0  0  0  0  0  0
   -1.0786   13.0279    0.0000 C   0  0  0  0  0  0  0  0  0  0  0  0
    0.0361   12.0242    0.0000 C   0  0  0  0  0  0  0  0  0  0  0  0
   -0.2758   10.5570    0.0000 C   0  0  0  0  0  0  0  0  0  0  0  0
    0.8389    9.5533    0.0000 C   0  0  0  0  0  0  0  0  0  0  0  0
    0.5271    8.0861    0.0000 C   0  0  0  0  0  0  0  0  0  0  0  0
    1.6418    7.0824    0.0000 N   0  0  0  0  0  0  0  0  0  0  0  0
    3.0684    7.5459    0.0000 C   0  0  0  0  0  0  0  0  0  0  0  0
    3.3802    9.0132    0.0000 C   0  0  0  0  0  0  0  0  0  0  0  0
    4.8068    9.4767    0.0000 C   0  0  0  0  0  0  0  0  0  0  0  0
    5.1187   10.9439    0.0000 C   0  0  0  0  0  0  0  0  0  0  0  0
    6.5453   11.4074    0.0000 C   0  0  0  0  0  0  0  0  0  0  0  0
    6.8571   12.8747    0.0000 C   0  0  0  0  0  0  0  0  0  0  0  0
    5.7424   13.8783    0.0000 C   0  0  0  0  0  0  0  0  0  0  0  0
    6.0543   15.3456    0.0000 Cl  0  0  0  0  0  0  0  0  0  0  0  0
    4.3158   13.4148    0.0000 C   0  0  0  0  0  0  0  0  0  0  0  0
    4.0040   11.9476    0.0000 C   0  0  0  0  0  0  0  0  0  0  0  0
    1.3299    5.6152    0.0000 C   0  0  0  0  0  0  0  0  0  0  0  0
   -0.0967    5.1517    0.0000 C   0  0  0  0  0  0  0  0  0  0  0  0
   -0.4086    3.6844    0.0000 C   0  0  0  0  0  0  0  0  0  0  0  0
   -1.8351    3.2209    0.0000 C   0  0  0  0  0  0  0  0  0  0  0  0
   -2.1470    1.7537    0.0000 C   0  0  0  0  0  0  0  0  0  0  0  0
   -1.0323    0.7500    0.0000 C   0  0  0  0  0  0  0  0  0  0  0  0
    0.3943    1.2135    0.0000 C   0  0  0  0  0  0  0  0  0  0  0  0
    0.7062    2.6807    0.0000 C   0  0  0  0  0  0  0  0  0  0  0  0
    1.2760    0.0000    0.0000 O   0  0  0  0  0  0  0  0  0  0  0  0
    0.3943   -1.2135    0.0000 C   0  0  0  0  0  0  0  0  0  0  0  0
   -1.0323   -0.7500    0.0000 O   0  0  0  0  0  0  0  0  0  0  0  0
   -1.7024   10.0935    0.0000 C   0  0  0  0  0  0  0  0  0  0  0  0
   -2.8171   11.0972    0.0000 C   0  0  0  0  0  0  0  0  0  0  0  0
   -4.2437   10.6337    0.0000 O   0  0  0  0  0  0  0  0  0  0  0  0
   -4.5556    9.1664    0.0000 C   0  0  0  0  0  0  0  0  0  0  0  0
  1  2  1  0
  2  3  1  0
  3  4  2  0
  4  5  1  0
  5  6  2  0
  6  7  1  0
  7  8  1  0
  8  9  1  0
  9 10  1  0
 10 11  1  0
 11 12  1  0
 12 13  1  0
 13 14  2  0
 14 15  1  0
 15 16  2  0
 16 17  1  0
 16 18  1  0
 18 19  2  0
  9 20  1  0
 20 21  1  0
 21 22  1  0
 22 23  2  0
 23 24  1  0
 24 25  2  0
 25 26  1  0
 26 27  2  0
 26 28  1  0
 28 29  1  0
 29 30  1  0
  6 31  1  0
 31 32  2  0
 32 33  1  0
 33 34  1  0
 32  3  1  0
 19 13  1  0
 27 22  1  0
 30 25  1  0
M  END
>  <assay_chembl_id>  (514) 
CHEMBL3816813

>  <assay_description>  (514) 
Displacement of [3H]LSD from human 5-HT2B receptor measured after 90 mins by microbeta scintillation counting method

>  <parent_molecule_chembl_id>  (514) 
CHEMBL3814708

>  <canonical_smiles>  (514) 
COc1ccc(CCN(CCCc2ccc(Cl)cc2)CCc2ccc3c(c2)OCO3)cc1OC

>  <standard_type>  (514) 
Ki

>  <standard_relation>  (514) 
=

>  <standard_value>  (514) 
54.0

>  <standard_units>  (514) 
nM

>  <target_pref_name>  (514) 
Serotonin 2b (5-HT2b) receptor

>  <target_chembl_id>  (514) 
CHEMBL1833

>  <target_organism>  (514) 
Homo sapiens

>  <pchembl_median>  (514) 
7.16

$$$$
CHEMBL3814485
     RDKit          2D

 34 37  0  0  0  0  0  0  0  0999 V2000
   -3.3081   15.0353    0.0000 C   0  0  0  0  0  0  0  0  0  0  0  0
   -3.6200   13.5681    0.0000 O   0  0  0  0  0  0  0  0  0  0  0  0
   -2.5052   12.5644    0.0000 C   0  0  0  0  0  0  0  0  0  0  0  0
   -1.0786   13.0279    0.0000 C   0  0  0  0  0  0  0  0  0  0  0  0
    0.0361   12.0242    0.0000 C   0  0  0  0  0  0  0  0  0  0  0  0
   -0.2758   10.5570    0.0000 C   0  0  0  0  0  0  0  0  0  0  0  0
    0.8389    9.5533    0.0000 C   0  0  0  0  0  0  0  0  0  0  0  0
    0.5271    8.0861    0.0000 C   0  0  0  0  0  0  0  0  0  0  0  0
    1.6418    7.0824    0.0000 N   0  0  0  0  0  0  0  0  0  0  0  0
    3.0684    7.5459    0.0000 C   0  0  0  0  0  0  0  0  0  0  0  0
    3.3802    9.0132    0.0000 C   0  0  0  0  0  0  0  0  0  0  0  0
    4.8068    9.4767    0.0000 C   0  0  0  0  0  0  0  0  0  0  0  0
    5.1187   10.9439    0.0000 C   0  0  0  0  0  0  0  0  0  0  0  0
    6.5453   11.4074    0.0000 C   0  0  0  0  0  0  0  0  0  0  0  0
    6.8571   12.8747    0.0000 C   0  0  0  0  0  0  0  0  0  0  0  0
    5.7424   13.8783    0.0000 C   0  0  0  0  0  0  0  0  0  0  0  0
    6.0543   15.3456    0.0000 Br  0  0  0  0  0  0  0  0  0  0  0  0
    4.3158   13.4148    0.0000 C   0  0  0  0  0  0  0  0  0  0  0  0
    4.0040   11.9476    0.0000 C   0  0  0  0  0  0  0  0  0  0  0  0
    1.3299    5.6152    0.0000 C   0  0  0  0  0  0  0  0  0  0  0  0
   -0.0967    5.1517    0.0000 C   0  0  0  0  0  0  0  0  0  0  0  0
   -0.4086    3.6844    0.0000 C   0  0  0  0  0  0  0  0  0  0  0  0
   -1.8351    3.2209    0.0000 C   0  0  0  0  0  0  0  0  0  0  0  0
   -2.1470    1.7537    0.0000 C   0  0  0  0  0  0  0  0  0  0  0  0
   -1.0323    0.7500    0.0000 C   0  0  0  0  0  0  0  0  0  0  0  0
    0.3943    1.2135    0.0000 C   0  0  0  0  0  0  0  0  0  0  0  0
    0.7062    2.6807    0.0000 C   0  0  0  0  0  0  0  0  0  0  0  0
    1.2760    0.0000    0.0000 O   0  0  0  0  0  0  0  0  0  0  0  0
    0.3943   -1.2135    0.0000 C   0  0  0  0  0  0  0  0  0  0  0  0
   -1.0323   -0.7500    0.0000 O   0  0  0  0  0  0  0  0  0  0  0  0
   -1.7024   10.0935    0.0000 C   0  0  0  0  0  0  0  0  0  0  0  0
   -2.8171   11.0972    0.0000 C   0  0  0  0  0  0  0  0  0  0  0  0
   -4.2437   10.6337    0.0000 O   0  0  0  0  0  0  0  0  0  0  0  0
   -4.5556    9.1664    0.0000 C   0  0  0  0  0  0  0  0  0  0  0  0
  1  2  1  0
  2  3  1  0
  3  4  2  0
  4  5  1  0
  5  6  2  0
  6  7  1  0
  7  8  1  0
  8  9  1  0
  9 10  1  0
 10 11  1  0
 11 12  1  0
 12 13  1  0
 13 14  2  0
 14 15  1  0
 15 16  2  0
 16 17  1  0
 16 18  1  0
 18 19  2  0
  9 20  1  0
 20 21  1  0
 21 22  1  0
 22 23  2  0
 23 24  1  0
 24 25  2  0
 25 26  1  0
 26 27  2  0
 26 28  1  0
 28 29  1  0
 29 30  1  0
  6 31  1  0
 31 32  2  0
 32 33  1  0
 33 34  1  0
 32  3  1  0
 19 13  1  0
 27 22  1  0
 30 25  1  0
M  END
>  <assay_chembl_id>  (515) 
CHEMBL3816813

>  <assay_description>  (515) 
Displacement of [3H]LSD from human 5-HT2B receptor measured after 90 mins by microbeta scintillation counting method

>  <parent_molecule_chembl_id>  (515) 
CHEMBL3814485

>  <canonical_smiles>  (515) 
COc1ccc(CCN(CCCc2ccc(Br)cc2)CCc2ccc3c(c2)OCO3)cc1OC

>  <standard_type>  (515) 
Ki

>  <standard_relation>  (515) 
=

>  <standard_value>  (515) 
45.0

>  <standard_units>  (515) 
nM

>  <target_pref_name>  (515) 
Serotonin 2b (5-HT2b) receptor

>  <target_chembl_id>  (515) 
CHEMBL1833

>  <target_organism>  (515) 
Homo sapiens

>  <pchembl_median>  (515) 
7.38

$$$$
CHEMBL3813789
     RDKit          2D

 34 37  0  0  0  0  0  0  0  0999 V2000
   -3.3081   15.0353    0.0000 C   0  0  0  0  0  0  0  0  0  0  0  0
   -3.6200   13.5681    0.0000 O   0  0  0  0  0  0  0  0  0  0  0  0
   -2.5052   12.5644    0.0000 C   0  0  0  0  0  0  0  0  0  0  0  0
   -1.0786   13.0279    0.0000 C   0  0  0  0  0  0  0  0  0  0  0  0
    0.0361   12.0242    0.0000 C   0  0  0  0  0  0  0  0  0  0  0  0
   -0.2758   10.5570    0.0000 C   0  0  0  0  0  0  0  0  0  0  0  0
    0.8389    9.5533    0.0000 C   0  0  0  0  0  0  0  0  0  0  0  0
    0.5271    8.0861    0.0000 C   0  0  0  0  0  0  0  0  0  0  0  0
    1.6418    7.0824    0.0000 N   0  0  0  0  0  0  0  0  0  0  0  0
    3.0684    7.5459    0.0000 C   0  0  0  0  0  0  0  0  0  0  0  0
    3.3802    9.0132    0.0000 C   0  0  0  0  0  0  0  0  0  0  0  0
    4.8068    9.4767    0.0000 C   0  0  0  0  0  0  0  0  0  0  0  0
    5.1187   10.9439    0.0000 C   0  0  0  0  0  0  0  0  0  0  0  0
    6.5453   11.4074    0.0000 C   0  0  0  0  0  0  0  0  0  0  0  0
    6.8571   12.8747    0.0000 C   0  0  0  0  0  0  0  0  0  0  0  0
    5.7424   13.8783    0.0000 C   0  0  0  0  0  0  0  0  0  0  0  0
    6.0543   15.3456    0.0000 I   0  0  0  0  0  0  0  0  0  0  0  0
    4.3158   13.4148    0.0000 C   0  0  0  0  0  0  0  0  0  0  0  0
    4.0040   11.9476    0.0000 C   0  0  0  0  0  0  0  0  0  0  0  0
    1.3299    5.6152    0.0000 C   0  0  0  0  0  0  0  0  0  0  0  0
   -0.0967    5.1517    0.0000 C   0  0  0  0  0  0  0  0  0  0  0  0
   -0.4086    3.6844    0.0000 C   0  0  0  0  0  0  0  0  0  0  0  0
   -1.8351    3.2209    0.0000 C   0  0  0  0  0  0  0  0  0  0  0  0
   -2.1470    1.7537    0.0000 C   0  0  0  0  0  0  0  0  0  0  0  0
   -1.0323    0.7500    0.0000 C   0  0  0  0  0  0  0  0  0  0  0  0
    0.3943    1.2135    0.0000 C   0  0  0  0  0  0  0  0  0  0  0  0
    0.7062    2.6807    0.0000 C   0  0  0  0  0  0  0  0  0  0  0  0
    1.2760    0.0000    0.0000 O   0  0  0  0  0  0  0  0  0  0  0  0
    0.3943   -1.2135    0.0000 C   0  0  0  0  0  0  0  0  0  0  0  0
   -1.0323   -0.7500    0.0000 O   0  0  0  0  0  0  0  0  0  0  0  0
   -1.7024   10.0935    0.0000 C   0  0  0  0  0  0  0  0  0  0  0  0
   -2.8171   11.0972    0.0000 C   0  0  0  0  0  0  0  0  0  0  0  0
   -4.2437   10.6337    0.0000 O   0  0  0  0  0  0  0  0  0  0  0  0
   -4.5556    9.1664    0.0000 C   0  0  0  0  0  0  0  0  0  0  0  0
  1  2  1  0
  2  3  1  0
  3  4  2  0
  4  5  1  0
  5  6  2  0
  6  7  1  0
  7  8  1  0
  8  9  1  0
  9 10  1  0
 10 11  1  0
 11 12  1  0
 12 13  1  0
 13 14  2  0
 14 15  1  0
 15 16  2  0
 16 17  1  0
 16 18  1  0
 18 19  2  0
  9 20  1  0
 20 21  1  0
 21 22  1  0
 22 23  2  0
 23 24  1  0
 24 25  2  0
 25 26  1  0
 26 27  2  0
 26 28  1  0
 28 29  1  0
 29 30  1  0
  6 31  1  0
 31 32  2  0
 32 33  1  0
 33 34  1  0
 32  3  1  0
 19 13  1  0
 27 22  1  0
 30 25  1  0
M  END
>  <assay_chembl_id>  (516) 
CHEMBL3816813

>  <assay_description>  (516) 
Displacement of [3H]LSD from human 5-HT2B receptor measured after 90 mins by microbeta scintillation counting method

>  <parent_molecule_chembl_id>  (516) 
CHEMBL3813789

>  <canonical_smiles>  (516) 
COc1ccc(CCN(CCCc2ccc(I)cc2)CCc2ccc3c(c2)OCO3)cc1OC

>  <standard_type>  (516) 
Ki

>  <standard_relation>  (516) 
=

>  <standard_value>  (516) 
51.0

>  <standard_units>  (516) 
nM

>  <target_pref_name>  (516) 
Serotonin 2b (5-HT2b) receptor

>  <target_chembl_id>  (516) 
CHEMBL1833

>  <target_organism>  (516) 
Homo sapiens

>  <pchembl_median>  (516) 
5.67

$$$$
CHEMBL3815000
     RDKit          2D

 34 37  0  0  0  0  0  0  0  0999 V2000
   -3.3081   15.0353    0.0000 C   0  0  0  0  0  0  0  0  0  0  0  0
   -3.6200   13.5681    0.0000 O   0  0  0  0  0  0  0  0  0  0  0  0
   -2.5052   12.5644    0.0000 C   0  0  0  0  0  0  0  0  0  0  0  0
   -1.0786   13.0279    0.0000 C   0  0  0  0  0  0  0  0  0  0  0  0
    0.0361   12.0242    0.0000 C   0  0  0  0  0  0  0  0  0  0  0  0
   -0.2758   10.5570    0.0000 C   0  0  0  0  0  0  0  0  0  0  0  0
    0.8389    9.5533    0.0000 C   0  0  0  0  0  0  0  0  0  0  0  0
    0.5271    8.0861    0.0000 C   0  0  0  0  0  0  0  0  0  0  0  0
    1.6418    7.0824    0.0000 N   0  0  0  0  0  0  0  0  0  0  0  0
    3.0684    7.5459    0.0000 C   0  0  0  0  0  0  0  0  0  0  0  0
    3.3802    9.0132    0.0000 C   0  0  0  0  0  0  0  0  0  0  0  0
    4.8068    9.4767    0.0000 C   0  0  0  0  0  0  0  0  0  0  0  0
    5.1187   10.9439    0.0000 C   0  0  0  0  0  0  0  0  0  0  0  0
    6.5453   11.4074    0.0000 C   0  0  0  0  0  0  0  0  0  0  0  0
    6.8571   12.8747    0.0000 C   0  0  0  0  0  0  0  0  0  0  0  0
    5.7424   13.8783    0.0000 C   0  0  0  0  0  0  0  0  0  0  0  0
    4.3158   13.4148    0.0000 C   0  0  0  0  0  0  0  0  0  0  0  0
    3.2011   14.4185    0.0000 F   0  0  0  0  0  0  0  0  0  0  0  0
    4.0040   11.9476    0.0000 C   0  0  0  0  0  0  0  0  0  0  0  0
    1.3299    5.6152    0.0000 C   0  0  0  0  0  0  0  0  0  0  0  0
   -0.0967    5.1517    0.0000 C   0  0  0  0  0  0  0  0  0  0  0  0
   -0.4086    3.6844    0.0000 C   0  0  0  0  0  0  0  0  0  0  0  0
   -1.8351    3.2209    0.0000 C   0  0  0  0  0  0  0  0  0  0  0  0
   -2.1470    1.7537    0.0000 C   0  0  0  0  0  0  0  0  0  0  0  0
   -1.0323    0.7500    0.0000 C   0  0  0  0  0  0  0  0  0  0  0  0
    0.3943    1.2135    0.0000 C   0  0  0  0  0  0  0  0  0  0  0  0
    0.7062    2.6807    0.0000 C   0  0  0  0  0  0  0  0  0  0  0  0
    1.2760    0.0000    0.0000 O   0  0  0  0  0  0  0  0  0  0  0  0
    0.3943   -1.2135    0.0000 C   0  0  0  0  0  0  0  0  0  0  0  0
   -1.0323   -0.7500    0.0000 O   0  0  0  0  0  0  0  0  0  0  0  0
   -1.7024   10.0935    0.0000 C   0  0  0  0  0  0  0  0  0  0  0  0
   -2.8171   11.0972    0.0000 C   0  0  0  0  0  0  0  0  0  0  0  0
   -4.2437   10.6337    0.0000 O   0  0  0  0  0  0  0  0  0  0  0  0
   -4.5556    9.1664    0.0000 C   0  0  0  0  0  0  0  0  0  0  0  0
  1  2  1  0
  2  3  1  0
  3  4  2  0
  4  5  1  0
  5  6  2  0
  6  7  1  0
  7  8  1  0
  8  9  1  0
  9 10  1  0
 10 11  1  0
 11 12  1  0
 12 13  1  0
 13 14  2  0
 14 15  1  0
 15 16  2  0
 16 17  1  0
 17 18  1  0
 17 19  2  0
  9 20  1  0
 20 21  1  0
 21 22  1  0
 22 23  2  0
 23 24  1  0
 24 25  2  0
 25 26  1  0
 26 27  2  0
 26 28  1  0
 28 29  1  0
 29 30  1  0
  6 31  1  0
 31 32  2  0
 32 33  1  0
 33 34  1  0
 32  3  1  0
 19 13  1  0
 27 22  1  0
 30 25  1  0
M  END
>  <assay_chembl_id>  (517) 
CHEMBL3816813

>  <assay_description>  (517) 
Displacement of [3H]LSD from human 5-HT2B receptor measured after 90 mins by microbeta scintillation counting method

>  <parent_molecule_chembl_id>  (517) 
CHEMBL3815000

>  <canonical_smiles>  (517) 
COc1ccc(CCN(CCCc2cccc(F)c2)CCc2ccc3c(c2)OCO3)cc1OC

>  <standard_type>  (517) 
Ki

>  <standard_relation>  (517) 
=

>  <standard_value>  (517) 
18.0

>  <standard_units>  (517) 
nM

>  <target_pref_name>  (517) 
Serotonin 2b (5-HT2b) receptor

>  <target_chembl_id>  (517) 
CHEMBL1833

>  <target_organism>  (517) 
Homo sapiens

>  <pchembl_median>  (517) 
6.1

$$$$
CHEMBL3814821
     RDKit          2D

 34 37  0  0  0  0  0  0  0  0999 V2000
   -3.3081   15.0353    0.0000 C   0  0  0  0  0  0  0  0  0  0  0  0
   -3.6200   13.5681    0.0000 O   0  0  0  0  0  0  0  0  0  0  0  0
   -2.5052   12.5644    0.0000 C   0  0  0  0  0  0  0  0  0  0  0  0
   -1.0786   13.0279    0.0000 C   0  0  0  0  0  0  0  0  0  0  0  0
    0.0361   12.0242    0.0000 C   0  0  0  0  0  0  0  0  0  0  0  0
   -0.2758   10.5570    0.0000 C   0  0  0  0  0  0  0  0  0  0  0  0
    0.8389    9.5533    0.0000 C   0  0  0  0  0  0  0  0  0  0  0  0
    0.5271    8.0861    0.0000 C   0  0  0  0  0  0  0  0  0  0  0  0
    1.6418    7.0824    0.0000 N   0  0  0  0  0  0  0  0  0  0  0  0
    3.0684    7.5459    0.0000 C   0  0  0  0  0  0  0  0  0  0  0  0
    3.3802    9.0132    0.0000 C   0  0  0  0  0  0  0  0  0  0  0  0
    4.8068    9.4767    0.0000 C   0  0  0  0  0  0  0  0  0  0  0  0
    5.1187   10.9439    0.0000 C   0  0  0  0  0  0  0  0  0  0  0  0
    6.5453   11.4074    0.0000 C   0  0  0  0  0  0  0  0  0  0  0  0
    6.8571   12.8747    0.0000 C   0  0  0  0  0  0  0  0  0  0  0  0
    5.7424   13.8783    0.0000 C   0  0  0  0  0  0  0  0  0  0  0  0
    4.3158   13.4148    0.0000 C   0  0  0  0  0  0  0  0  0  0  0  0
    3.2011   14.4185    0.0000 Cl  0  0  0  0  0  0  0  0  0  0  0  0
    4.0040   11.9476    0.0000 C   0  0  0  0  0  0  0  0  0  0  0  0
    1.3299    5.6152    0.0000 C   0  0  0  0  0  0  0  0  0  0  0  0
   -0.0967    5.1517    0.0000 C   0  0  0  0  0  0  0  0  0  0  0  0
   -0.4086    3.6844    0.0000 C   0  0  0  0  0  0  0  0  0  0  0  0
   -1.8351    3.2209    0.0000 C   0  0  0  0  0  0  0  0  0  0  0  0
   -2.1470    1.7537    0.0000 C   0  0  0  0  0  0  0  0  0  0  0  0
   -1.0323    0.7500    0.0000 C   0  0  0  0  0  0  0  0  0  0  0  0
    0.3943    1.2135    0.0000 C   0  0  0  0  0  0  0  0  0  0  0  0
    0.7062    2.6807    0.0000 C   0  0  0  0  0  0  0  0  0  0  0  0
    1.2760    0.0000    0.0000 O   0  0  0  0  0  0  0  0  0  0  0  0
    0.3943   -1.2135    0.0000 C   0  0  0  0  0  0  0  0  0  0  0  0
   -1.0323   -0.7500    0.0000 O   0  0  0  0  0  0  0  0  0  0  0  0
   -1.7024   10.0935    0.0000 C   0  0  0  0  0  0  0  0  0  0  0  0
   -2.8171   11.0972    0.0000 C   0  0  0  0  0  0  0  0  0  0  0  0
   -4.2437   10.6337    0.0000 O   0  0  0  0  0  0  0  0  0  0  0  0
   -4.5556    9.1664    0.0000 C   0  0  0  0  0  0  0  0  0  0  0  0
  1  2  1  0
  2  3  1  0
  3  4  2  0
  4  5  1  0
  5  6  2  0
  6  7  1  0
  7  8  1  0
  8  9  1  0
  9 10  1  0
 10 11  1  0
 11 12  1  0
 12 13  1  0
 13 14  2  0
 14 15  1  0
 15 16  2  0
 16 17  1  0
 17 18  1  0
 17 19  2  0
  9 20  1  0
 20 21  1  0
 21 22  1  0
 22 23  2  0
 23 24  1  0
 24 25  2  0
 25 26  1  0
 26 27  2  0
 26 28  1  0
 28 29  1  0
 29 30  1  0
  6 31  1  0
 31 32  2  0
 32 33  1  0
 33 34  1  0
 32  3  1  0
 19 13  1  0
 27 22  1  0
 30 25  1  0
M  END
>  <assay_chembl_id>  (518) 
CHEMBL3816813

>  <assay_description>  (518) 
Displacement of [3H]LSD from human 5-HT2B receptor measured after 90 mins by microbeta scintillation counting method

>  <parent_molecule_chembl_id>  (518) 
CHEMBL3814821

>  <canonical_smiles>  (518) 
COc1ccc(CCN(CCCc2cccc(Cl)c2)CCc2ccc3c(c2)OCO3)cc1OC

>  <standard_type>  (518) 
Ki

>  <standard_relation>  (518) 
=

>  <standard_value>  (518) 
17.0

>  <standard_units>  (518) 
nM

>  <target_pref_name>  (518) 
Serotonin 2b (5-HT2b) receptor

>  <target_chembl_id>  (518) 
CHEMBL1833

>  <target_organism>  (518) 
Homo sapiens

>  <pchembl_median>  (518) 
6.39

$$$$
CHEMBL3815066
     RDKit          2D

 34 37  0  0  0  0  0  0  0  0999 V2000
   -3.3081   15.0353    0.0000 C   0  0  0  0  0  0  0  0  0  0  0  0
   -3.6200   13.5681    0.0000 O   0  0  0  0  0  0  0  0  0  0  0  0
   -2.5052   12.5644    0.0000 C   0  0  0  0  0  0  0  0  0  0  0  0
   -1.0786   13.0279    0.0000 C   0  0  0  0  0  0  0  0  0  0  0  0
    0.0361   12.0242    0.0000 C   0  0  0  0  0  0  0  0  0  0  0  0
   -0.2758   10.5570    0.0000 C   0  0  0  0  0  0  0  0  0  0  0  0
    0.8389    9.5533    0.0000 C   0  0  0  0  0  0  0  0  0  0  0  0
    0.5271    8.0861    0.0000 C   0  0  0  0  0  0  0  0  0  0  0  0
    1.6418    7.0824    0.0000 N   0  0  0  0  0  0  0  0  0  0  0  0
    3.0684    7.5459    0.0000 C   0  0  0  0  0  0  0  0  0  0  0  0
    3.3802    9.0132    0.0000 C   0  0  0  0  0  0  0  0  0  0  0  0
    4.8068    9.4767    0.0000 C   0  0  0  0  0  0  0  0  0  0  0  0
    5.1187   10.9439    0.0000 C   0  0  0  0  0  0  0  0  0  0  0  0
    6.5453   11.4074    0.0000 C   0  0  0  0  0  0  0  0  0  0  0  0
    6.8571   12.8747    0.0000 C   0  0  0  0  0  0  0  0  0  0  0  0
    5.7424   13.8783    0.0000 C   0  0  0  0  0  0  0  0  0  0  0  0
    4.3158   13.4148    0.0000 C   0  0  0  0  0  0  0  0  0  0  0  0
    3.2011   14.4185    0.0000 Br  0  0  0  0  0  0  0  0  0  0  0  0
    4.0040   11.9476    0.0000 C   0  0  0  0  0  0  0  0  0  0  0  0
    1.3299    5.6152    0.0000 C   0  0  0  0  0  0  0  0  0  0  0  0
   -0.0967    5.1517    0.0000 C   0  0  0  0  0  0  0  0  0  0  0  0
   -0.4086    3.6844    0.0000 C   0  0  0  0  0  0  0  0  0  0  0  0
   -1.8351    3.2209    0.0000 C   0  0  0  0  0  0  0  0  0  0  0  0
   -2.1470    1.7537    0.0000 C   0  0  0  0  0  0  0  0  0  0  0  0
   -1.0323    0.7500    0.0000 C   0  0  0  0  0  0  0  0  0  0  0  0
    0.3943    1.2135    0.0000 C   0  0  0  0  0  0  0  0  0  0  0  0
    0.7062    2.6807    0.0000 C   0  0  0  0  0  0  0  0  0  0  0  0
    1.2760    0.0000    0.0000 O   0  0  0  0  0  0  0  0  0  0  0  0
    0.3943   -1.2135    0.0000 C   0  0  0  0  0  0  0  0  0  0  0  0
   -1.0323   -0.7500    0.0000 O   0  0  0  0  0  0  0  0  0  0  0  0
   -1.7024   10.0935    0.0000 C   0  0  0  0  0  0  0  0  0  0  0  0
   -2.8171   11.0972    0.0000 C   0  0  0  0  0  0  0  0  0  0  0  0
   -4.2437   10.6337    0.0000 O   0  0  0  0  0  0  0  0  0  0  0  0
   -4.5556    9.1664    0.0000 C   0  0  0  0  0  0  0  0  0  0  0  0
  1  2  1  0
  2  3  1  0
  3  4  2  0
  4  5  1  0
  5  6  2  0
  6  7  1  0
  7  8  1  0
  8  9  1  0
  9 10  1  0
 10 11  1  0
 11 12  1  0
 12 13  1  0
 13 14  2  0
 14 15  1  0
 15 16  2  0
 16 17  1  0
 17 18  1  0
 17 19  2  0
  9 20  1  0
 20 21  1  0
 21 22  1  0
 22 23  2  0
 23 24  1  0
 24 25  2  0
 25 26  1  0
 26 27  2  0
 26 28  1  0
 28 29  1  0
 29 30  1  0
  6 31  1  0
 31 32  2  0
 32 33  1  0
 33 34  1  0
 32  3  1  0
 19 13  1  0
 27 22  1  0
 30 25  1  0
M  END
>  <assay_chembl_id>  (519) 
CHEMBL3816813

>  <assay_description>  (519) 
Displacement of [3H]LSD from human 5-HT2B receptor measured after 90 mins by microbeta scintillation counting method

>  <parent_molecule_chembl_id>  (519) 
CHEMBL3815066

>  <canonical_smiles>  (519) 
COc1ccc(CCN(CCCc2cccc(Br)c2)CCc2ccc3c(c2)OCO3)cc1OC

>  <standard_type>  (519) 
Ki

>  <standard_relation>  (519) 
=

>  <standard_value>  (519) 
14.0

>  <standard_units>  (519) 
nM

>  <target_pref_name>  (519) 
Serotonin 2b (5-HT2b) receptor

>  <target_chembl_id>  (519) 
CHEMBL1833

>  <target_organism>  (519) 
Homo sapiens

>  <pchembl_median>  (519) 
7.58

$$$$
CHEMBL3814559
     RDKit          2D

 34 37  0  0  0  0  0  0  0  0999 V2000
   -3.3081   15.0353    0.0000 C   0  0  0  0  0  0  0  0  0  0  0  0
   -3.6200   13.5681    0.0000 O   0  0  0  0  0  0  0  0  0  0  0  0
   -2.5052   12.5644    0.0000 C   0  0  0  0  0  0  0  0  0  0  0  0
   -1.0786   13.0279    0.0000 C   0  0  0  0  0  0  0  0  0  0  0  0
    0.0361   12.0242    0.0000 C   0  0  0  0  0  0  0  0  0  0  0  0
   -0.2758   10.5570    0.0000 C   0  0  0  0  0  0  0  0  0  0  0  0
    0.8389    9.5533    0.0000 C   0  0  0  0  0  0  0  0  0  0  0  0
    0.5271    8.0861    0.0000 C   0  0  0  0  0  0  0  0  0  0  0  0
    1.6418    7.0824    0.0000 N   0  0  0  0  0  0  0  0  0  0  0  0
    3.0684    7.5459    0.0000 C   0  0  0  0  0  0  0  0  0  0  0  0
    3.3802    9.0132    0.0000 C   0  0  0  0  0  0  0  0  0  0  0  0
    4.8068    9.4767    0.0000 C   0  0  0  0  0  0  0  0  0  0  0  0
    5.1187   10.9439    0.0000 C   0  0  0  0  0  0  0  0  0  0  0  0
    6.5453   11.4074    0.0000 C   0  0  0  0  0  0  0  0  0  0  0  0
    6.8571   12.8747    0.0000 C   0  0  0  0  0  0  0  0  0  0  0  0
    5.7424   13.8783    0.0000 C   0  0  0  0  0  0  0  0  0  0  0  0
    4.3158   13.4148    0.0000 C   0  0  0  0  0  0  0  0  0  0  0  0
    3.2011   14.4185    0.0000 I   0  0  0  0  0  0  0  0  0  0  0  0
    4.0040   11.9476    0.0000 C   0  0  0  0  0  0  0  0  0  0  0  0
    1.3299    5.6152    0.0000 C   0  0  0  0  0  0  0  0  0  0  0  0
   -0.0967    5.1517    0.0000 C   0  0  0  0  0  0  0  0  0  0  0  0
   -0.4086    3.6844    0.0000 C   0  0  0  0  0  0  0  0  0  0  0  0
   -1.8351    3.2209    0.0000 C   0  0  0  0  0  0  0  0  0  0  0  0
   -2.1470    1.7537    0.0000 C   0  0  0  0  0  0  0  0  0  0  0  0
   -1.0323    0.7500    0.0000 C   0  0  0  0  0  0  0  0  0  0  0  0
    0.3943    1.2135    0.0000 C   0  0  0  0  0  0  0  0  0  0  0  0
    0.7062    2.6807    0.0000 C   0  0  0  0  0  0  0  0  0  0  0  0
    1.2760    0.0000    0.0000 O   0  0  0  0  0  0  0  0  0  0  0  0
    0.3943   -1.2135    0.0000 C   0  0  0  0  0  0  0  0  0  0  0  0
   -1.0323   -0.7500    0.0000 O   0  0  0  0  0  0  0  0  0  0  0  0
   -1.7024   10.0935    0.0000 C   0  0  0  0  0  0  0  0  0  0  0  0
   -2.8171   11.0972    0.0000 C   0  0  0  0  0  0  0  0  0  0  0  0
   -4.2437   10.6337    0.0000 O   0  0  0  0  0  0  0  0  0  0  0  0
   -4.5556    9.1664    0.0000 C   0  0  0  0  0  0  0  0  0  0  0  0
  1  2  1  0
  2  3  1  0
  3  4  2  0
  4  5  1  0
  5  6  2  0
  6  7  1  0
  7  8  1  0
  8  9  1  0
  9 10  1  0
 10 11  1  0
 11 12  1  0
 12 13  1  0
 13 14  2  0
 14 15  1  0
 15 16  2  0
 16 17  1  0
 17 18  1  0
 17 19  2  0
  9 20  1  0
 20 21  1  0
 21 22  1  0
 22 23  2  0
 23 24  1  0
 24 25  2  0
 25 26  1  0
 26 27  2  0
 26 28  1  0
 28 29  1  0
 29 30  1  0
  6 31  1  0
 31 32  2  0
 32 33  1  0
 33 34  1  0
 32  3  1  0
 19 13  1  0
 27 22  1  0
 30 25  1  0
M  END
>  <assay_chembl_id>  (520) 
CHEMBL3816813

>  <assay_description>  (520) 
Displacement of [3H]LSD from human 5-HT2B receptor measured after 90 mins by microbeta scintillation counting method

>  <parent_molecule_chembl_id>  (520) 
CHEMBL3814559

>  <canonical_smiles>  (520) 
COc1ccc(CCN(CCCc2cccc(I)c2)CCc2ccc3c(c2)OCO3)cc1OC

>  <standard_type>  (520) 
Ki

>  <standard_relation>  (520) 
=

>  <standard_value>  (520) 
18.0

>  <standard_units>  (520) 
nM

>  <target_pref_name>  (520) 
Serotonin 2b (5-HT2b) receptor

>  <target_chembl_id>  (520) 
CHEMBL1833

>  <target_organism>  (520) 
Homo sapiens

>  <pchembl_median>  (520) 
7.19

$$$$
CHEMBL3815112
     RDKit          2D

 34 37  0  0  0  0  0  0  0  0999 V2000
   -3.3081   15.0353    0.0000 C   0  0  0  0  0  0  0  0  0  0  0  0
   -3.6200   13.5681    0.0000 O   0  0  0  0  0  0  0  0  0  0  0  0
   -2.5052   12.5644    0.0000 C   0  0  0  0  0  0  0  0  0  0  0  0
   -1.0786   13.0279    0.0000 C   0  0  0  0  0  0  0  0  0  0  0  0
    0.0361   12.0242    0.0000 C   0  0  0  0  0  0  0  0  0  0  0  0
   -0.2758   10.5570    0.0000 C   0  0  0  0  0  0  0  0  0  0  0  0
    0.8389    9.5533    0.0000 C   0  0  0  0  0  0  0  0  0  0  0  0
    0.5271    8.0861    0.0000 C   0  0  0  0  0  0  0  0  0  0  0  0
    1.6418    7.0824    0.0000 N   0  0  0  0  0  0  0  0  0  0  0  0
    3.0684    7.5459    0.0000 C   0  0  0  0  0  0  0  0  0  0  0  0
    3.3802    9.0132    0.0000 C   0  0  0  0  0  0  0  0  0  0  0  0
    4.8068    9.4767    0.0000 C   0  0  0  0  0  0  0  0  0  0  0  0
    5.1187   10.9439    0.0000 C   0  0  0  0  0  0  0  0  0  0  0  0
    6.5453   11.4074    0.0000 C   0  0  0  0  0  0  0  0  0  0  0  0
    6.8571   12.8747    0.0000 C   0  0  0  0  0  0  0  0  0  0  0  0
    5.7424   13.8783    0.0000 C   0  0  0  0  0  0  0  0  0  0  0  0
    4.3158   13.4148    0.0000 C   0  0  0  0  0  0  0  0  0  0  0  0
    4.0040   11.9476    0.0000 C   0  0  0  0  0  0  0  0  0  0  0  0
    2.5774   11.4841    0.0000 F   0  0  0  0  0  0  0  0  0  0  0  0
    1.3299    5.6152    0.0000 C   0  0  0  0  0  0  0  0  0  0  0  0
   -0.0967    5.1517    0.0000 C   0  0  0  0  0  0  0  0  0  0  0  0
   -0.4086    3.6844    0.0000 C   0  0  0  0  0  0  0  0  0  0  0  0
   -1.8351    3.2209    0.0000 C   0  0  0  0  0  0  0  0  0  0  0  0
   -2.1470    1.7537    0.0000 C   0  0  0  0  0  0  0  0  0  0  0  0
   -1.0323    0.7500    0.0000 C   0  0  0  0  0  0  0  0  0  0  0  0
    0.3943    1.2135    0.0000 C   0  0  0  0  0  0  0  0  0  0  0  0
    0.7062    2.6807    0.0000 C   0  0  0  0  0  0  0  0  0  0  0  0
    1.2760    0.0000    0.0000 O   0  0  0  0  0  0  0  0  0  0  0  0
    0.3943   -1.2135    0.0000 C   0  0  0  0  0  0  0  0  0  0  0  0
   -1.0323   -0.7500    0.0000 O   0  0  0  0  0  0  0  0  0  0  0  0
   -1.7024   10.0935    0.0000 C   0  0  0  0  0  0  0  0  0  0  0  0
   -2.8171   11.0972    0.0000 C   0  0  0  0  0  0  0  0  0  0  0  0
   -4.2437   10.6337    0.0000 O   0  0  0  0  0  0  0  0  0  0  0  0
   -4.5556    9.1664    0.0000 C   0  0  0  0  0  0  0  0  0  0  0  0
  1  2  1  0
  2  3  1  0
  3  4  2  0
  4  5  1  0
  5  6  2  0
  6  7  1  0
  7  8  1  0
  8  9  1  0
  9 10  1  0
 10 11  1  0
 11 12  1  0
 12 13  1  0
 13 14  2  0
 14 15  1  0
 15 16  2  0
 16 17  1  0
 17 18  2  0
 18 19  1  0
  9 20  1  0
 20 21  1  0
 21 22  1  0
 22 23  2  0
 23 24  1  0
 24 25  2  0
 25 26  1  0
 26 27  2  0
 26 28  1  0
 28 29  1  0
 29 30  1  0
  6 31  1  0
 31 32  2  0
 32 33  1  0
 33 34  1  0
 32  3  1  0
 18 13  1  0
 27 22  1  0
 30 25  1  0
M  END
>  <assay_chembl_id>  (521) 
CHEMBL3816813

>  <assay_description>  (521) 
Displacement of [3H]LSD from human 5-HT2B receptor measured after 90 mins by microbeta scintillation counting method

>  <parent_molecule_chembl_id>  (521) 
CHEMBL3815112

>  <canonical_smiles>  (521) 
COc1ccc(CCN(CCCc2ccccc2F)CCc2ccc3c(c2)OCO3)cc1OC

>  <standard_type>  (521) 
Ki

>  <standard_relation>  (521) 
=

>  <standard_value>  (521) 
1.7

>  <standard_units>  (521) 
nM

>  <target_pref_name>  (521) 
Serotonin 2b (5-HT2b) receptor

>  <target_chembl_id>  (521) 
CHEMBL1833

>  <target_organism>  (521) 
Homo sapiens

>  <pchembl_median>  (521) 
5.95

$$$$
CHEMBL3813796
     RDKit          2D

 34 37  0  0  0  0  0  0  0  0999 V2000
   -3.3081   15.0353    0.0000 C   0  0  0  0  0  0  0  0  0  0  0  0
   -3.6200   13.5681    0.0000 O   0  0  0  0  0  0  0  0  0  0  0  0
   -2.5052   12.5644    0.0000 C   0  0  0  0  0  0  0  0  0  0  0  0
   -1.0786   13.0279    0.0000 C   0  0  0  0  0  0  0  0  0  0  0  0
    0.0361   12.0242    0.0000 C   0  0  0  0  0  0  0  0  0  0  0  0
   -0.2758   10.5570    0.0000 C   0  0  0  0  0  0  0  0  0  0  0  0
    0.8389    9.5533    0.0000 C   0  0  0  0  0  0  0  0  0  0  0  0
    0.5271    8.0861    0.0000 C   0  0  0  0  0  0  0  0  0  0  0  0
    1.6418    7.0824    0.0000 N   0  0  0  0  0  0  0  0  0  0  0  0
    3.0684    7.5459    0.0000 C   0  0  0  0  0  0  0  0  0  0  0  0
    3.3802    9.0132    0.0000 C   0  0  0  0  0  0  0  0  0  0  0  0
    4.8068    9.4767    0.0000 C   0  0  0  0  0  0  0  0  0  0  0  0
    5.1187   10.9439    0.0000 C   0  0  0  0  0  0  0  0  0  0  0  0
    6.5453   11.4074    0.0000 C   0  0  0  0  0  0  0  0  0  0  0  0
    6.8571   12.8747    0.0000 C   0  0  0  0  0  0  0  0  0  0  0  0
    5.7424   13.8783    0.0000 C   0  0  0  0  0  0  0  0  0  0  0  0
    4.3158   13.4148    0.0000 C   0  0  0  0  0  0  0  0  0  0  0  0
    4.0040   11.9476    0.0000 C   0  0  0  0  0  0  0  0  0  0  0  0
    2.5774   11.4841    0.0000 Cl  0  0  0  0  0  0  0  0  0  0  0  0
    1.3299    5.6152    0.0000 C   0  0  0  0  0  0  0  0  0  0  0  0
   -0.0967    5.1517    0.0000 C   0  0  0  0  0  0  0  0  0  0  0  0
   -0.4086    3.6844    0.0000 C   0  0  0  0  0  0  0  0  0  0  0  0
   -1.8351    3.2209    0.0000 C   0  0  0  0  0  0  0  0  0  0  0  0
   -2.1470    1.7537    0.0000 C   0  0  0  0  0  0  0  0  0  0  0  0
   -1.0323    0.7500    0.0000 C   0  0  0  0  0  0  0  0  0  0  0  0
    0.3943    1.2135    0.0000 C   0  0  0  0  0  0  0  0  0  0  0  0
    0.7062    2.6807    0.0000 C   0  0  0  0  0  0  0  0  0  0  0  0
    1.2760    0.0000    0.0000 O   0  0  0  0  0  0  0  0  0  0  0  0
    0.3943   -1.2135    0.0000 C   0  0  0  0  0  0  0  0  0  0  0  0
   -1.0323   -0.7500    0.0000 O   0  0  0  0  0  0  0  0  0  0  0  0
   -1.7024   10.0935    0.0000 C   0  0  0  0  0  0  0  0  0  0  0  0
   -2.8171   11.0972    0.0000 C   0  0  0  0  0  0  0  0  0  0  0  0
   -4.2437   10.6337    0.0000 O   0  0  0  0  0  0  0  0  0  0  0  0
   -4.5556    9.1664    0.0000 C   0  0  0  0  0  0  0  0  0  0  0  0
  1  2  1  0
  2  3  1  0
  3  4  2  0
  4  5  1  0
  5  6  2  0
  6  7  1  0
  7  8  1  0
  8  9  1  0
  9 10  1  0
 10 11  1  0
 11 12  1  0
 12 13  1  0
 13 14  2  0
 14 15  1  0
 15 16  2  0
 16 17  1  0
 17 18  2  0
 18 19  1  0
  9 20  1  0
 20 21  1  0
 21 22  1  0
 22 23  2  0
 23 24  1  0
 24 25  2  0
 25 26  1  0
 26 27  2  0
 26 28  1  0
 28 29  1  0
 29 30  1  0
  6 31  1  0
 31 32  2  0
 32 33  1  0
 33 34  1  0
 32  3  1  0
 18 13  1  0
 27 22  1  0
 30 25  1  0
M  END
>  <assay_chembl_id>  (522) 
CHEMBL3816813

>  <assay_description>  (522) 
Displacement of [3H]LSD from human 5-HT2B receptor measured after 90 mins by microbeta scintillation counting method

>  <parent_molecule_chembl_id>  (522) 
CHEMBL3813796

>  <canonical_smiles>  (522) 
COc1ccc(CCN(CCCc2ccccc2Cl)CCc2ccc3c(c2)OCO3)cc1OC

>  <standard_type>  (522) 
Ki

>  <standard_relation>  (522) 
=

>  <standard_value>  (522) 
3.1

>  <standard_units>  (522) 
nM

>  <target_pref_name>  (522) 
Serotonin 2b (5-HT2b) receptor

>  <target_chembl_id>  (522) 
CHEMBL1833

>  <target_organism>  (522) 
Homo sapiens

>  <pchembl_median>  (522) 
6.05

$$$$
CHEMBL3813726
     RDKit          2D

 34 37  0  0  0  0  0  0  0  0999 V2000
   -3.3081   15.0353    0.0000 C   0  0  0  0  0  0  0  0  0  0  0  0
   -3.6200   13.5681    0.0000 O   0  0  0  0  0  0  0  0  0  0  0  0
   -2.5052   12.5644    0.0000 C   0  0  0  0  0  0  0  0  0  0  0  0
   -1.0786   13.0279    0.0000 C   0  0  0  0  0  0  0  0  0  0  0  0
    0.0361   12.0242    0.0000 C   0  0  0  0  0  0  0  0  0  0  0  0
   -0.2758   10.5570    0.0000 C   0  0  0  0  0  0  0  0  0  0  0  0
    0.8389    9.5533    0.0000 C   0  0  0  0  0  0  0  0  0  0  0  0
    0.5271    8.0861    0.0000 C   0  0  0  0  0  0  0  0  0  0  0  0
    1.6418    7.0824    0.0000 N   0  0  0  0  0  0  0  0  0  0  0  0
    3.0684    7.5459    0.0000 C   0  0  0  0  0  0  0  0  0  0  0  0
    3.3802    9.0132    0.0000 C   0  0  0  0  0  0  0  0  0  0  0  0
    4.8068    9.4767    0.0000 C   0  0  0  0  0  0  0  0  0  0  0  0
    5.1187   10.9439    0.0000 C   0  0  0  0  0  0  0  0  0  0  0  0
    6.5453   11.4074    0.0000 C   0  0  0  0  0  0  0  0  0  0  0  0
    6.8571   12.8747    0.0000 C   0  0  0  0  0  0  0  0  0  0  0  0
    5.7424   13.8783    0.0000 C   0  0  0  0  0  0  0  0  0  0  0  0
    4.3158   13.4148    0.0000 C   0  0  0  0  0  0  0  0  0  0  0  0
    4.0040   11.9476    0.0000 C   0  0  0  0  0  0  0  0  0  0  0  0
    2.5774   11.4841    0.0000 Br  0  0  0  0  0  0  0  0  0  0  0  0
    1.3299    5.6152    0.0000 C   0  0  0  0  0  0  0  0  0  0  0  0
   -0.0967    5.1517    0.0000 C   0  0  0  0  0  0  0  0  0  0  0  0
   -0.4086    3.6844    0.0000 C   0  0  0  0  0  0  0  0  0  0  0  0
   -1.8351    3.2209    0.0000 C   0  0  0  0  0  0  0  0  0  0  0  0
   -2.1470    1.7537    0.0000 C   0  0  0  0  0  0  0  0  0  0  0  0
   -1.0323    0.7500    0.0000 C   0  0  0  0  0  0  0  0  0  0  0  0
    0.3943    1.2135    0.0000 C   0  0  0  0  0  0  0  0  0  0  0  0
    0.7062    2.6807    0.0000 C   0  0  0  0  0  0  0  0  0  0  0  0
    1.2760    0.0000    0.0000 O   0  0  0  0  0  0  0  0  0  0  0  0
    0.3943   -1.2135    0.0000 C   0  0  0  0  0  0  0  0  0  0  0  0
   -1.0323   -0.7500    0.0000 O   0  0  0  0  0  0  0  0  0  0  0  0
   -1.7024   10.0935    0.0000 C   0  0  0  0  0  0  0  0  0  0  0  0
   -2.8171   11.0972    0.0000 C   0  0  0  0  0  0  0  0  0  0  0  0
   -4.2437   10.6337    0.0000 O   0  0  0  0  0  0  0  0  0  0  0  0
   -4.5556    9.1664    0.0000 C   0  0  0  0  0  0  0  0  0  0  0  0
  1  2  1  0
  2  3  1  0
  3  4  2  0
  4  5  1  0
  5  6  2  0
  6  7  1  0
  7  8  1  0
  8  9  1  0
  9 10  1  0
 10 11  1  0
 11 12  1  0
 12 13  1  0
 13 14  2  0
 14 15  1  0
 15 16  2  0
 16 17  1  0
 17 18  2  0
 18 19  1  0
  9 20  1  0
 20 21  1  0
 21 22  1  0
 22 23  2  0
 23 24  1  0
 24 25  2  0
 25 26  1  0
 26 27  2  0
 26 28  1  0
 28 29  1  0
 29 30  1  0
  6 31  1  0
 31 32  2  0
 32 33  1  0
 33 34  1  0
 32  3  1  0
 18 13  1  0
 27 22  1  0
 30 25  1  0
M  END
>  <assay_chembl_id>  (523) 
CHEMBL3816813

>  <assay_description>  (523) 
Displacement of [3H]LSD from human 5-HT2B receptor measured after 90 mins by microbeta scintillation counting method

>  <parent_molecule_chembl_id>  (523) 
CHEMBL3813726

>  <canonical_smiles>  (523) 
COc1ccc(CCN(CCCc2ccccc2Br)CCc2ccc3c(c2)OCO3)cc1OC

>  <standard_type>  (523) 
Ki

>  <standard_relation>  (523) 
=

>  <standard_value>  (523) 
3.4

>  <standard_units>  (523) 
nM

>  <target_pref_name>  (523) 
Serotonin 2b (5-HT2b) receptor

>  <target_chembl_id>  (523) 
CHEMBL1833

>  <target_organism>  (523) 
Homo sapiens

>  <pchembl_median>  (523) 
6.41

$$$$
CHEMBL3813855
     RDKit          2D

 34 37  0  0  0  0  0  0  0  0999 V2000
   -3.3081   15.0353    0.0000 C   0  0  0  0  0  0  0  0  0  0  0  0
   -3.6200   13.5681    0.0000 O   0  0  0  0  0  0  0  0  0  0  0  0
   -2.5052   12.5644    0.0000 C   0  0  0  0  0  0  0  0  0  0  0  0
   -1.0786   13.0279    0.0000 C   0  0  0  0  0  0  0  0  0  0  0  0
    0.0361   12.0242    0.0000 C   0  0  0  0  0  0  0  0  0  0  0  0
   -0.2758   10.5570    0.0000 C   0  0  0  0  0  0  0  0  0  0  0  0
    0.8389    9.5533    0.0000 C   0  0  0  0  0  0  0  0  0  0  0  0
    0.5271    8.0861    0.0000 C   0  0  0  0  0  0  0  0  0  0  0  0
    1.6418    7.0824    0.0000 N   0  0  0  0  0  0  0  0  0  0  0  0
    3.0684    7.5459    0.0000 C   0  0  0  0  0  0  0  0  0  0  0  0
    3.3802    9.0132    0.0000 C   0  0  0  0  0  0  0  0  0  0  0  0
    4.8068    9.4767    0.0000 C   0  0  0  0  0  0  0  0  0  0  0  0
    5.1187   10.9439    0.0000 C   0  0  0  0  0  0  0  0  0  0  0  0
    6.5453   11.4074    0.0000 C   0  0  0  0  0  0  0  0  0  0  0  0
    6.8571   12.8747    0.0000 C   0  0  0  0  0  0  0  0  0  0  0  0
    5.7424   13.8783    0.0000 C   0  0  0  0  0  0  0  0  0  0  0  0
    4.3158   13.4148    0.0000 C   0  0  0  0  0  0  0  0  0  0  0  0
    4.0040   11.9476    0.0000 C   0  0  0  0  0  0  0  0  0  0  0  0
    2.5774   11.4841    0.0000 I   0  0  0  0  0  0  0  0  0  0  0  0
    1.3299    5.6152    0.0000 C   0  0  0  0  0  0  0  0  0  0  0  0
   -0.0967    5.1517    0.0000 C   0  0  0  0  0  0  0  0  0  0  0  0
   -0.4086    3.6844    0.0000 C   0  0  0  0  0  0  0  0  0  0  0  0
   -1.8351    3.2209    0.0000 C   0  0  0  0  0  0  0  0  0  0  0  0
   -2.1470    1.7537    0.0000 C   0  0  0  0  0  0  0  0  0  0  0  0
   -1.0323    0.7500    0.0000 C   0  0  0  0  0  0  0  0  0  0  0  0
    0.3943    1.2135    0.0000 C   0  0  0  0  0  0  0  0  0  0  0  0
    0.7062    2.6807    0.0000 C   0  0  0  0  0  0  0  0  0  0  0  0
    1.2760    0.0000    0.0000 O   0  0  0  0  0  0  0  0  0  0  0  0
    0.3943   -1.2135    0.0000 C   0  0  0  0  0  0  0  0  0  0  0  0
   -1.0323   -0.7500    0.0000 O   0  0  0  0  0  0  0  0  0  0  0  0
   -1.7024   10.0935    0.0000 C   0  0  0  0  0  0  0  0  0  0  0  0
   -2.8171   11.0972    0.0000 C   0  0  0  0  0  0  0  0  0  0  0  0
   -4.2437   10.6337    0.0000 O   0  0  0  0  0  0  0  0  0  0  0  0
   -4.5556    9.1664    0.0000 C   0  0  0  0  0  0  0  0  0  0  0  0
  1  2  1  0
  2  3  1  0
  3  4  2  0
  4  5  1  0
  5  6  2  0
  6  7  1  0
  7  8  1  0
  8  9  1  0
  9 10  1  0
 10 11  1  0
 11 12  1  0
 12 13  1  0
 13 14  2  0
 14 15  1  0
 15 16  2  0
 16 17  1  0
 17 18  2  0
 18 19  1  0
  9 20  1  0
 20 21  1  0
 21 22  1  0
 22 23  2  0
 23 24  1  0
 24 25  2  0
 25 26  1  0
 26 27  2  0
 26 28  1  0
 28 29  1  0
 29 30  1  0
  6 31  1  0
 31 32  2  0
 32 33  1  0
 33 34  1  0
 32  3  1  0
 18 13  1  0
 27 22  1  0
 30 25  1  0
M  END
>  <assay_chembl_id>  (524) 
CHEMBL3816813

>  <assay_description>  (524) 
Displacement of [3H]LSD from human 5-HT2B receptor measured after 90 mins by microbeta scintillation counting method

>  <parent_molecule_chembl_id>  (524) 
CHEMBL3813855

>  <canonical_smiles>  (524) 
COc1ccc(CCN(CCCc2ccccc2I)CCc2ccc3c(c2)OCO3)cc1OC

>  <standard_type>  (524) 
Ki

>  <standard_relation>  (524) 
=

>  <standard_value>  (524) 
13.0

>  <standard_units>  (524) 
nM

>  <target_pref_name>  (524) 
Serotonin 2b (5-HT2b) receptor

>  <target_chembl_id>  (524) 
CHEMBL1833

>  <target_organism>  (524) 
Homo sapiens

>  <pchembl_median>  (524) 
6.3

$$$$
CHEMBL85194
     RDKit          2D

 20 22  0  0  0  0  0  0  0  0999 V2000
   -2.6401   -3.1891    0.0000 C   0  0  0  0  0  0  0  0  0  0  0  0
   -1.2135   -2.7256    0.0000 N   0  0  0  0  0  0  0  0  0  0  0  0
   -0.0000   -3.6073    0.0000 C   0  0  0  0  0  0  0  0  0  0  0  0
    1.2135   -2.7256    0.0000 C   0  0  0  0  0  0  0  0  0  0  0  0
    0.7500   -1.2990    0.0000 C   0  0  0  0  0  0  0  0  0  0  0  0
    1.5000    0.0000    0.0000 C   0  0  0  0  0  0  0  0  0  0  0  0
    0.7500    1.2990    0.0000 C   0  0  0  0  0  0  0  0  0  0  0  0
    1.5000    2.5981    0.0000 N   0  0  0  0  0  0  0  0  0  0  0  0
    3.0000    2.5981    0.0000 C   0  0  0  0  0  0  0  0  0  0  0  0
    3.7500    1.2990    0.0000 O   0  0  0  0  0  0  0  0  0  0  0  0
    3.7500    3.8971    0.0000 N   0  0  0  0  0  0  0  0  0  0  0  0
    5.2500    3.8971    0.0000 C   0  0  0  0  0  0  0  0  0  0  0  0
    6.0000    2.5981    0.0000 C   0  0  0  0  0  0  0  0  0  0  0  0
    7.5000    2.5981    0.0000 C   0  0  0  0  0  0  0  0  0  0  0  0
    8.2500    3.8971    0.0000 C   0  0  0  0  0  0  0  0  0  0  0  0
    7.5000    5.1962    0.0000 N   0  0  0  0  0  0  0  0  0  0  0  0
    6.0000    5.1962    0.0000 C   0  0  0  0  0  0  0  0  0  0  0  0
   -0.7500    1.2990    0.0000 C   0  0  0  0  0  0  0  0  0  0  0  0
   -1.5000    0.0000    0.0000 C   0  0  0  0  0  0  0  0  0  0  0  0
   -0.7500   -1.2990    0.0000 C   0  0  0  0  0  0  0  0  0  0  0  0
  1  2  1  0
  2  3  1  0
  3  4  2  0
  4  5  1  0
  5  6  2  0
  6  7  1  0
  7  8  1  0
  8  9  1  0
  9 10  2  0
  9 11  1  0
 11 12  1  0
 12 13  2  0
 13 14  1  0
 14 15  2  0
 15 16  1  0
 16 17  2  0
  7 18  2  0
 18 19  1  0
 19 20  2  0
 20  2  1  0
 20  5  1  0
 17 12  1  0
M  END
>  <assay_chembl_id>  (525) 
CHEMBL3816813

>  <assay_description>  (525) 
Displacement of [3H]LSD from human 5-HT2B receptor measured after 90 mins by microbeta scintillation counting method

>  <parent_molecule_chembl_id>  (525) 
CHEMBL85194

>  <canonical_smiles>  (525) 
Cn1ccc2cc(NC(=O)Nc3cccnc3)ccc21

>  <standard_type>  (525) 
Ki

>  <standard_relation>  (525) 
=

>  <standard_value>  (525) 
21.0

>  <standard_units>  (525) 
nM

>  <target_pref_name>  (525) 
Serotonin 2b (5-HT2b) receptor

>  <target_chembl_id>  (525) 
CHEMBL1833

>  <target_organism>  (525) 
Homo sapiens

>  <pchembl_median>  (525) 
6.44

$$$$
CHEMBL3817911
     RDKit          2D

 25 28  0  0  0  0  0  0  0  0999 V2000
   -8.4955   -6.8363    0.0000 O   0  0  0  0  0  0  0  0  0  0  0  0
   -7.4918   -7.9510    0.0000 C   0  0  0  0  0  0  0  0  0  0  0  0
   -7.8037   -9.4182    0.0000 C   0  0  0  0  0  0  0  0  0  0  0  0
   -9.1027  -10.1682    0.0000 C   0  0  0  0  0  0  0  0  0  0  0  0
   -9.1027  -11.6682    0.0000 C   0  0  0  0  0  0  0  0  0  0  0  0
   -7.8037  -12.4182    0.0000 C   0  0  0  0  0  0  0  0  0  0  0  0
   -6.5046  -11.6682    0.0000 C   0  0  0  0  0  0  0  0  0  0  0  0
   -6.5046  -10.1682    0.0000 C   0  0  0  0  0  0  0  0  0  0  0  0
   -5.3899   -9.1645    0.0000 C   0  0  0  0  0  0  0  0  0  0  0  0
   -3.9227   -9.4764    0.0000 O   0  0  0  0  0  0  0  0  0  0  0  0
   -6.0000   -7.7942    0.0000 N   0  0  0  0  0  0  0  0  0  0  0  0
   -5.2500   -6.4952    0.0000 C   0  0  0  0  0  0  0  0  0  0  0  0
   -3.7500   -6.4952    0.0000 C   0  0  0  0  0  0  0  0  0  0  0  0
   -3.0000   -5.1962    0.0000 C   0  0  0  0  0  0  0  0  0  0  0  0
   -1.5000   -5.1962    0.0000 C   0  0  0  0  0  0  0  0  0  0  0  0
   -0.7500   -3.8971    0.0000 N   0  0  0  0  0  0  0  0  0  0  0  0
    0.7500   -3.8971    0.0000 C   0  0  0  0  0  0  0  0  0  0  0  0
    1.5000   -2.5981    0.0000 C   0  0  0  0  0  0  0  0  0  0  0  0
    0.7500   -1.2990    0.0000 C   0  0  0  0  0  0  0  0  0  0  0  0
    1.5000    0.0000    0.0000 C   0  0  0  0  0  0  0  0  0  0  0  0
    0.7500    1.2990    0.0000 C   0  0  0  0  0  0  0  0  0  0  0  0
   -0.7500    1.2990    0.0000 C   0  0  0  0  0  0  0  0  0  0  0  0
   -1.5000    0.0000    0.0000 C   0  0  0  0  0  0  0  0  0  0  0  0
   -0.7500   -1.2990    0.0000 C   0  0  0  0  0  0  0  0  0  0  0  0
   -1.5000   -2.5981    0.0000 C   0  0  0  0  0  0  0  0  0  0  0  0
  1  2  2  0
  2  3  1  0
  3  4  2  0
  4  5  1  0
  5  6  2  0
  6  7  1  0
  7  8  2  0
  8  9  1  0
  9 10  2  0
  9 11  1  0
 11 12  1  0
 12 13  1  0
 13 14  1  0
 14 15  1  0
 15 16  1  0
 16 17  1  0
 17 18  1  0
 18 19  1  0
 19 20  1  0
 20 21  1  0
 21 22  1  0
 22 23  1  0
 23 24  1  0
 24 25  1  0
 11  2  1  0
 25 16  1  0
  8  3  1  0
 24 19  1  0
M  END
>  <assay_chembl_id>  (526) 
CHEMBL3821450

>  <assay_description>  (526) 
Displacement of [3H]LSD from human 5-HT2B receptor expressed in cell membranes after 1 hr by liquid scintillation counting

>  <parent_molecule_chembl_id>  (526) 
CHEMBL3817911

>  <canonical_smiles>  (526) 
O=C1c2ccccc2C(=O)N1CCCCN1CCC2CCCCC2C1

>  <standard_type>  (526) 
Ki

>  <standard_relation>  (526) 
=

>  <standard_value>  (526) 
400.0

>  <standard_units>  (526) 
nM

>  <target_pref_name>  (526) 
Serotonin 2b (5-HT2b) receptor

>  <target_chembl_id>  (526) 
CHEMBL1833

>  <target_organism>  (526) 
Homo sapiens

>  <pchembl_median>  (526) 
8.5

$$$$
CHEMBL3819082
     RDKit          2D

 23 25  0  0  0  0  0  0  0  0999 V2000
    2.5000    0.0000    0.0000 Cl  0  0  0  0  0  0  0  0  0  0  0  0
   -5.5537  -12.6192    0.0000 F   0  0  0  0  0  0  0  0  0  0  0  0
   -5.5537  -11.1192    0.0000 C   0  0  0  0  0  0  0  0  0  0  0  0
   -6.8527  -10.3692    0.0000 C   0  0  0  0  0  0  0  0  0  0  0  0
   -6.8527   -8.8692    0.0000 C   0  0  0  0  0  0  0  0  0  0  0  0
   -5.5537   -8.1192    0.0000 C   0  0  0  0  0  0  0  0  0  0  0  0
   -4.2546   -8.8692    0.0000 C   0  0  0  0  0  0  0  0  0  0  0  0
   -4.2546  -10.3692    0.0000 C   0  0  0  0  0  0  0  0  0  0  0  0
   -3.1399   -7.8655    0.0000 C   0  0  0  0  0  0  0  0  0  0  0  0
   -3.7500   -6.4952    0.0000 C   0  0  0  0  0  0  0  0  0  0  0  0
   -3.0000   -5.1962    0.0000 C   0  0  0  0  0  0  0  0  0  0  0  0
   -1.5000   -5.1962    0.0000 C   0  0  0  0  0  0  0  0  0  0  0  0
   -0.7500   -3.8971    0.0000 N   0  0  0  0  0  0  0  0  0  0  0  0
    0.7500   -3.8971    0.0000 C   0  0  0  0  0  0  0  0  0  0  0  0
    1.5000   -2.5981    0.0000 C   0  0  0  0  0  0  0  0  0  0  0  0
    0.7500   -1.2990    0.0000 C   0  0  0  0  0  0  0  0  0  0  0  0
    1.5000    0.0000    0.0000 C   0  0  0  0  0  0  0  0  0  0  0  0
    0.7500    1.2990    0.0000 C   0  0  0  0  0  0  0  0  0  0  0  0
   -0.7500    1.2990    0.0000 C   0  0  0  0  0  0  0  0  0  0  0  0
   -1.5000    0.0000    0.0000 C   0  0  0  0  0  0  0  0  0  0  0  0
   -0.7500   -1.2990    0.0000 C   0  0  0  0  0  0  0  0  0  0  0  0
   -1.5000   -2.5981    0.0000 C   0  0  0  0  0  0  0  0  0  0  0  0
   -5.2418   -6.6520    0.0000 C   0  0  0  0  0  0  0  0  0  0  0  0
  2  3  1  0
  3  4  2  0
  4  5  1  0
  5  6  2  0
  6  7  1  0
  7  8  2  0
  7  9  1  0
  9 10  1  0
 10 11  1  0
 11 12  1  0
 12 13  1  0
 13 14  1  0
 14 15  1  0
 15 16  1  0
 16 17  2  0
 17 18  1  0
 18 19  2  0
 19 20  1  0
 20 21  2  0
 21 22  1  0
 10 23  1  0
  8  3  1  0
 22 13  1  0
 23  6  1  0
 21 16  1  0
M  END
>  <assay_chembl_id>  (527) 
CHEMBL3821450

>  <assay_description>  (527) 
Displacement of [3H]LSD from human 5-HT2B receptor expressed in cell membranes after 1 hr by liquid scintillation counting

>  <parent_molecule_chembl_id>  (527) 
CHEMBL3819726

>  <canonical_smiles>  (527) 
Cl.Fc1ccc2c(c1)CC(CCN1CCc3ccccc3C1)C2

>  <standard_type>  (527) 
Ki

>  <standard_relation>  (527) 
=

>  <standard_value>  (527) 
1247.0

>  <standard_units>  (527) 
nM

>  <target_pref_name>  (527) 
Serotonin 2b (5-HT2b) receptor

>  <target_chembl_id>  (527) 
CHEMBL1833

>  <target_organism>  (527) 
Homo sapiens

>  <pchembl_median>  (527) 
5.62

$$$$
CHEMBL3818128
     RDKit          2D

 22 23  0  0  0  0  0  0  0  0999 V2000
    2.5000    0.0000    0.0000 Cl  0  0  0  0  0  0  0  0  0  0  0  0
   -8.2500  -11.6913    0.0000 F   0  0  0  0  0  0  0  0  0  0  0  0
   -7.5000  -10.3923    0.0000 C   0  0  0  0  0  0  0  0  0  0  0  0
   -8.2500   -9.0933    0.0000 C   0  0  0  0  0  0  0  0  0  0  0  0
   -7.5000   -7.7942    0.0000 C   0  0  0  0  0  0  0  0  0  0  0  0
   -6.0000   -7.7942    0.0000 C   0  0  0  0  0  0  0  0  0  0  0  0
   -5.2500   -6.4952    0.0000 C   0  0  0  0  0  0  0  0  0  0  0  0
   -3.7500   -6.4952    0.0000 C   0  0  0  0  0  0  0  0  0  0  0  0
   -3.0000   -5.1962    0.0000 C   0  0  0  0  0  0  0  0  0  0  0  0
   -1.5000   -5.1962    0.0000 C   0  0  0  0  0  0  0  0  0  0  0  0
   -0.7500   -3.8971    0.0000 N   0  0  0  0  0  0  0  0  0  0  0  0
    0.7500   -3.8971    0.0000 C   0  0  0  0  0  0  0  0  0  0  0  0
    1.5000   -2.5981    0.0000 C   0  0  0  0  0  0  0  0  0  0  0  0
    0.7500   -1.2990    0.0000 C   0  0  0  0  0  0  0  0  0  0  0  0
    1.5000    0.0000    0.0000 C   0  0  0  0  0  0  0  0  0  0  0  0
    0.7500    1.2990    0.0000 C   0  0  0  0  0  0  0  0  0  0  0  0
   -0.7500    1.2990    0.0000 C   0  0  0  0  0  0  0  0  0  0  0  0
   -1.5000    0.0000    0.0000 C   0  0  0  0  0  0  0  0  0  0  0  0
   -0.7500   -1.2990    0.0000 C   0  0  0  0  0  0  0  0  0  0  0  0
   -1.5000   -2.5981    0.0000 C   0  0  0  0  0  0  0  0  0  0  0  0
   -5.2500   -9.0933    0.0000 C   0  0  0  0  0  0  0  0  0  0  0  0
   -6.0000  -10.3923    0.0000 C   0  0  0  0  0  0  0  0  0  0  0  0
  2  3  1  0
  3  4  2  0
  4  5  1  0
  5  6  2  0
  6  7  1  0
  7  8  1  0
  8  9  1  0
  9 10  1  0
 10 11  1  0
 11 12  1  0
 12 13  1  0
 13 14  1  0
 14 15  2  0
 15 16  1  0
 16 17  2  0
 17 18  1  0
 18 19  2  0
 19 20  1  0
  6 21  1  0
 21 22  2  0
 22  3  1  0
 20 11  1  0
 19 14  1  0
M  END
>  <assay_chembl_id>  (528) 
CHEMBL3821450

>  <assay_description>  (528) 
Displacement of [3H]LSD from human 5-HT2B receptor expressed in cell membranes after 1 hr by liquid scintillation counting

>  <parent_molecule_chembl_id>  (528) 
CHEMBL3819731

>  <canonical_smiles>  (528) 
Cl.Fc1ccc(CCCCN2CCc3ccccc3C2)cc1

>  <standard_type>  (528) 
Ki

>  <standard_relation>  (528) 
=

>  <standard_value>  (528) 
1713.0

>  <standard_units>  (528) 
nM

>  <target_pref_name>  (528) 
Serotonin 2b (5-HT2b) receptor

>  <target_chembl_id>  (528) 
CHEMBL1833

>  <target_organism>  (528) 
Homo sapiens

>  <pchembl_median>  (528) 
6.16

$$$$
CHEMBL3819366
     RDKit          2D

 22 23  0  0  0  0  0  0  0  0999 V2000
    2.5000    0.0000    0.0000 Cl  0  0  0  0  0  0  0  0  0  0  0  0
   -8.2500  -11.6913    0.0000 F   0  0  0  0  0  0  0  0  0  0  0  0
   -7.5000  -10.3923    0.0000 C   0  0  0  0  0  0  0  0  0  0  0  0
   -8.2500   -9.0933    0.0000 C   0  0  0  0  0  0  0  0  0  0  0  0
   -7.5000   -7.7942    0.0000 C   0  0  0  0  0  0  0  0  0  0  0  0
   -6.0000   -7.7942    0.0000 C   0  0  0  0  0  0  0  0  0  0  0  0
   -5.2500   -6.4952    0.0000 O   0  0  0  0  0  0  0  0  0  0  0  0
   -3.7500   -6.4952    0.0000 C   0  0  0  0  0  0  0  0  0  0  0  0
   -3.0000   -5.1962    0.0000 C   0  0  0  0  0  0  0  0  0  0  0  0
   -1.5000   -5.1962    0.0000 C   0  0  0  0  0  0  0  0  0  0  0  0
   -0.7500   -3.8971    0.0000 N   0  0  0  0  0  0  0  0  0  0  0  0
    0.7500   -3.8971    0.0000 C   0  0  0  0  0  0  0  0  0  0  0  0
    1.5000   -2.5981    0.0000 C   0  0  0  0  0  0  0  0  0  0  0  0
    0.7500   -1.2990    0.0000 C   0  0  0  0  0  0  0  0  0  0  0  0
    1.5000    0.0000    0.0000 C   0  0  0  0  0  0  0  0  0  0  0  0
    0.7500    1.2990    0.0000 C   0  0  0  0  0  0  0  0  0  0  0  0
   -0.7500    1.2990    0.0000 C   0  0  0  0  0  0  0  0  0  0  0  0
   -1.5000    0.0000    0.0000 C   0  0  0  0  0  0  0  0  0  0  0  0
   -0.7500   -1.2990    0.0000 C   0  0  0  0  0  0  0  0  0  0  0  0
   -1.5000   -2.5981    0.0000 C   0  0  0  0  0  0  0  0  0  0  0  0
   -5.2500   -9.0933    0.0000 C   0  0  0  0  0  0  0  0  0  0  0  0
   -6.0000  -10.3923    0.0000 C   0  0  0  0  0  0  0  0  0  0  0  0
  2  3  1  0
  3  4  2  0
  4  5  1  0
  5  6  2  0
  6  7  1  0
  7  8  1  0
  8  9  1  0
  9 10  1  0
 10 11  1  0
 11 12  1  0
 12 13  1  0
 13 14  1  0
 14 15  2  0
 15 16  1  0
 16 17  2  0
 17 18  1  0
 18 19  2  0
 19 20  1  0
  6 21  1  0
 21 22  2  0
 22  3  1  0
 20 11  1  0
 19 14  1  0
M  END
>  <assay_chembl_id>  (529) 
CHEMBL3821450

>  <assay_description>  (529) 
Displacement of [3H]LSD from human 5-HT2B receptor expressed in cell membranes after 1 hr by liquid scintillation counting

>  <parent_molecule_chembl_id>  (529) 
CHEMBL126667

>  <canonical_smiles>  (529) 
Cl.Fc1ccc(OCCCN2CCc3ccccc3C2)cc1

>  <standard_type>  (529) 
Ki

>  <standard_relation>  (529) 
=

>  <standard_value>  (529) 
561.0

>  <standard_units>  (529) 
nM

>  <target_pref_name>  (529) 
Serotonin 2b (5-HT2b) receptor

>  <target_chembl_id>  (529) 
CHEMBL1833

>  <target_organism>  (529) 
Homo sapiens

>  <pchembl_median>  (529) 
6.42

$$$$
CHEMBL3819556
     RDKit          2D

 22 23  0  0  0  0  0  0  0  0999 V2000
    2.5000    0.0000    0.0000 Cl  0  0  0  0  0  0  0  0  0  0  0  0
   -8.2500  -11.6913    0.0000 F   0  0  0  0  0  0  0  0  0  0  0  0
   -7.5000  -10.3923    0.0000 C   0  0  0  0  0  0  0  0  0  0  0  0
   -8.2500   -9.0933    0.0000 C   0  0  0  0  0  0  0  0  0  0  0  0
   -7.5000   -7.7942    0.0000 C   0  0  0  0  0  0  0  0  0  0  0  0
   -6.0000   -7.7942    0.0000 C   0  0  0  0  0  0  0  0  0  0  0  0
   -5.2500   -6.4952    0.0000 S   0  0  0  0  0  0  0  0  0  0  0  0
   -3.7500   -6.4952    0.0000 C   0  0  0  0  0  0  0  0  0  0  0  0
   -3.0000   -5.1962    0.0000 C   0  0  0  0  0  0  0  0  0  0  0  0
   -1.5000   -5.1962    0.0000 C   0  0  0  0  0  0  0  0  0  0  0  0
   -0.7500   -3.8971    0.0000 N   0  0  0  0  0  0  0  0  0  0  0  0
    0.7500   -3.8971    0.0000 C   0  0  0  0  0  0  0  0  0  0  0  0
    1.5000   -2.5981    0.0000 C   0  0  0  0  0  0  0  0  0  0  0  0
    0.7500   -1.2990    0.0000 C   0  0  0  0  0  0  0  0  0  0  0  0
    1.5000    0.0000    0.0000 C   0  0  0  0  0  0  0  0  0  0  0  0
    0.7500    1.2990    0.0000 C   0  0  0  0  0  0  0  0  0  0  0  0
   -0.7500    1.2990    0.0000 C   0  0  0  0  0  0  0  0  0  0  0  0
   -1.5000    0.0000    0.0000 C   0  0  0  0  0  0  0  0  0  0  0  0
   -0.7500   -1.2990    0.0000 C   0  0  0  0  0  0  0  0  0  0  0  0
   -1.5000   -2.5981    0.0000 C   0  0  0  0  0  0  0  0  0  0  0  0
   -5.2500   -9.0933    0.0000 C   0  0  0  0  0  0  0  0  0  0  0  0
   -6.0000  -10.3923    0.0000 C   0  0  0  0  0  0  0  0  0  0  0  0
  2  3  1  0
  3  4  2  0
  4  5  1  0
  5  6  2  0
  6  7  1  0
  7  8  1  0
  8  9  1  0
  9 10  1  0
 10 11  1  0
 11 12  1  0
 12 13  1  0
 13 14  1  0
 14 15  2  0
 15 16  1  0
 16 17  2  0
 17 18  1  0
 18 19  2  0
 19 20  1  0
  6 21  1  0
 21 22  2  0
 22  3  1  0
 20 11  1  0
 19 14  1  0
M  END
>  <assay_chembl_id>  (530) 
CHEMBL3821450

>  <assay_description>  (530) 
Displacement of [3H]LSD from human 5-HT2B receptor expressed in cell membranes after 1 hr by liquid scintillation counting

>  <parent_molecule_chembl_id>  (530) 
CHEMBL3819732

>  <canonical_smiles>  (530) 
Cl.Fc1ccc(SCCCN2CCc3ccccc3C2)cc1

>  <standard_type>  (530) 
Ki

>  <standard_relation>  (530) 
=

>  <standard_value>  (530) 
204.0

>  <standard_units>  (530) 
nM

>  <target_pref_name>  (530) 
Serotonin 2b (5-HT2b) receptor

>  <target_chembl_id>  (530) 
CHEMBL1833

>  <target_organism>  (530) 
Homo sapiens

>  <pchembl_median>  (530) 
7.0

$$$$
CHEMBL3818710
     RDKit          2D

 23 24  0  0  0  0  0  0  0  0999 V2000
    2.5000    0.0000    0.0000 Cl  0  0  0  0  0  0  0  0  0  0  0  0
   -6.0000   -5.1962    0.0000 O   0  0  0  0  0  1  0  0  0  0  0  0
   -5.2500   -6.4952    0.0000 S   0  0  0  0  0  3  0  0  0  0  0  0
   -3.7500   -6.4952    0.0000 C   0  0  0  0  0  0  0  0  0  0  0  0
   -3.0000   -5.1962    0.0000 C   0  0  0  0  0  0  0  0  0  0  0  0
   -1.5000   -5.1962    0.0000 C   0  0  0  0  0  0  0  0  0  0  0  0
   -0.7500   -3.8971    0.0000 N   0  0  0  0  0  0  0  0  0  0  0  0
    0.7500   -3.8971    0.0000 C   0  0  0  0  0  0  0  0  0  0  0  0
    1.5000   -2.5981    0.0000 C   0  0  0  0  0  0  0  0  0  0  0  0
    0.7500   -1.2990    0.0000 C   0  0  0  0  0  0  0  0  0  0  0  0
    1.5000    0.0000    0.0000 C   0  0  0  0  0  0  0  0  0  0  0  0
    0.7500    1.2990    0.0000 C   0  0  0  0  0  0  0  0  0  0  0  0
   -0.7500    1.2990    0.0000 C   0  0  0  0  0  0  0  0  0  0  0  0
   -1.5000    0.0000    0.0000 C   0  0  0  0  0  0  0  0  0  0  0  0
   -0.7500   -1.2990    0.0000 C   0  0  0  0  0  0  0  0  0  0  0  0
   -1.5000   -2.5981    0.0000 C   0  0  0  0  0  0  0  0  0  0  0  0
   -6.0000   -7.7942    0.0000 C   0  0  0  0  0  0  0  0  0  0  0  0
   -7.5000   -7.7942    0.0000 C   0  0  0  0  0  0  0  0  0  0  0  0
   -8.2500   -9.0933    0.0000 C   0  0  0  0  0  0  0  0  0  0  0  0
   -7.5000  -10.3923    0.0000 C   0  0  0  0  0  0  0  0  0  0  0  0
   -8.2500  -11.6913    0.0000 F   0  0  0  0  0  0  0  0  0  0  0  0
   -6.0000  -10.3923    0.0000 C   0  0  0  0  0  0  0  0  0  0  0  0
   -5.2500   -9.0933    0.0000 C   0  0  0  0  0  0  0  0  0  0  0  0
  2  3  1  0
  3  4  1  0
  4  5  1  0
  5  6  1  0
  6  7  1  0
  7  8  1  0
  8  9  1  0
  9 10  1  0
 10 11  2  0
 11 12  1  0
 12 13  2  0
 13 14  1  0
 14 15  2  0
 15 16  1  0
  3 17  1  0
 17 18  2  0
 18 19  1  0
 19 20  2  0
 20 21  1  0
 20 22  1  0
 22 23  2  0
 16  7  1  0
 23 17  1  0
 15 10  1  0
M  CHG  2   2  -1   3   1
M  END
>  <assay_chembl_id>  (531) 
CHEMBL3821450

>  <assay_description>  (531) 
Displacement of [3H]LSD from human 5-HT2B receptor expressed in cell membranes after 1 hr by liquid scintillation counting

>  <parent_molecule_chembl_id>  (531) 
CHEMBL3819742

>  <canonical_smiles>  (531) 
Cl.[O-][S+](CCCN1CCc2ccccc2C1)c1ccc(F)cc1

>  <standard_type>  (531) 
Ki

>  <standard_relation>  (531) 
=

>  <standard_value>  (531) 
1166.0

>  <standard_units>  (531) 
nM

>  <target_pref_name>  (531) 
Serotonin 2b (5-HT2b) receptor

>  <target_chembl_id>  (531) 
CHEMBL1833

>  <target_organism>  (531) 
Homo sapiens

>  <pchembl_median>  (531) 
6.7

$$$$
CHEMBL3818994
     RDKit          2D

 22 24  0  0  0  0  0  0  0  0999 V2000
   -6.0000   -5.1962    0.0000 O   0  0  0  0  0  0  0  0  0  0  0  0
   -5.2500   -6.4952    0.0000 C   0  0  0  0  0  0  0  0  0  0  0  0
   -3.7500   -6.4952    0.0000 C   0  0  0  0  0  0  0  0  0  0  0  0
   -3.0000   -5.1962    0.0000 C   0  0  0  0  0  0  0  0  0  0  0  0
   -1.5000   -5.1962    0.0000 C   0  0  0  0  0  0  0  0  0  0  0  0
   -0.7500   -3.8971    0.0000 N   0  0  0  0  0  0  0  0  0  0  0  0
    0.7500   -3.8971    0.0000 C   0  0  0  0  0  0  0  0  0  0  0  0
    1.5000   -2.5981    0.0000 C   0  0  0  0  0  0  0  0  0  0  0  0
    0.7500   -1.2990    0.0000 C   0  0  0  0  0  0  0  0  0  0  0  0
    1.5000    0.0000    0.0000 C   0  0  0  0  0  0  0  0  0  0  0  0
    0.7500    1.2990    0.0000 C   0  0  0  0  0  0  0  0  0  0  0  0
   -0.7500    1.2990    0.0000 C   0  0  0  0  0  0  0  0  0  0  0  0
   -1.5000    0.0000    0.0000 C   0  0  0  0  0  0  0  0  0  0  0  0
   -0.7500   -1.2990    0.0000 C   0  0  0  0  0  0  0  0  0  0  0  0
   -1.5000   -2.5981    0.0000 C   0  0  0  0  0  0  0  0  0  0  0  0
   -6.0000   -7.7942    0.0000 C   0  0  0  0  0  0  0  0  0  0  0  0
   -7.5000   -7.7942    0.0000 C   0  0  0  0  0  0  0  0  0  0  0  0
   -8.2500   -9.0933    0.0000 C   0  0  0  0  0  0  0  0  0  0  0  0
   -7.5000  -10.3923    0.0000 C   0  0  0  0  0  0  0  0  0  0  0  0
   -8.2500  -11.6913    0.0000 F   0  0  0  0  0  0  0  0  0  0  0  0
   -6.0000  -10.3923    0.0000 C   0  0  0  0  0  0  0  0  0  0  0  0
   -5.2500   -9.0933    0.0000 C   0  0  0  0  0  0  0  0  0  0  0  0
  1  2  2  0
  2  3  1  0
  3  4  1  0
  4  5  1  0
  5  6  1  0
  6  7  1  0
  7  8  1  0
  8  9  1  0
  9 10  2  0
 10 11  1  0
 11 12  2  0
 12 13  1  0
 13 14  2  0
 14 15  1  0
  2 16  1  0
 16 17  2  0
 17 18  1  0
 18 19  2  0
 19 20  1  0
 19 21  1  0
 21 22  2  0
 15  6  1  0
 22 16  1  0
 14  9  1  0
M  END
>  <assay_chembl_id>  (532) 
CHEMBL3821450

>  <assay_description>  (532) 
Displacement of [3H]LSD from human 5-HT2B receptor expressed in cell membranes after 1 hr by liquid scintillation counting

>  <parent_molecule_chembl_id>  (532) 
CHEMBL3818994

>  <canonical_smiles>  (532) 
O=C(CCCN1CCc2ccccc2C1)c1ccc(F)cc1

>  <standard_type>  (532) 
Ki

>  <standard_relation>  (532) 
=

>  <standard_value>  (532) 
614.0

>  <standard_units>  (532) 
nM

>  <target_pref_name>  (532) 
Serotonin 2b (5-HT2b) receptor

>  <target_chembl_id>  (532) 
CHEMBL1833

>  <target_organism>  (532) 
Homo sapiens

>  <pchembl_median>  (532) 
5.52

$$$$
CHEMBL3818989
     RDKit          2D

 21 23  0  0  0  0  0  0  0  0999 V2000
   -6.0000   -5.1962    0.0000 O   0  0  0  0  0  0  0  0  0  0  0  0
   -5.2500   -6.4952    0.0000 C   0  0  0  0  0  0  0  0  0  0  0  0
   -3.7500   -6.4952    0.0000 C   0  0  0  0  0  0  0  0  0  0  0  0
   -3.0000   -5.1962    0.0000 C   0  0  0  0  0  0  0  0  0  0  0  0
   -1.5000   -5.1962    0.0000 C   0  0  0  0  0  0  0  0  0  0  0  0
   -0.7500   -3.8971    0.0000 N   0  0  0  0  0  0  0  0  0  0  0  0
    0.7500   -3.8971    0.0000 C   0  0  0  0  0  0  0  0  0  0  0  0
    1.5000   -2.5981    0.0000 C   0  0  0  0  0  0  0  0  0  0  0  0
    0.7500   -1.2990    0.0000 C   0  0  0  0  0  0  0  0  0  0  0  0
    1.5000    0.0000    0.0000 C   0  0  0  0  0  0  0  0  0  0  0  0
    0.7500    1.2990    0.0000 C   0  0  0  0  0  0  0  0  0  0  0  0
   -0.7500    1.2990    0.0000 C   0  0  0  0  0  0  0  0  0  0  0  0
   -1.5000    0.0000    0.0000 C   0  0  0  0  0  0  0  0  0  0  0  0
   -0.7500   -1.2990    0.0000 C   0  0  0  0  0  0  0  0  0  0  0  0
   -1.5000   -2.5981    0.0000 C   0  0  0  0  0  0  0  0  0  0  0  0
   -6.0000   -7.7942    0.0000 C   0  0  0  0  0  0  0  0  0  0  0  0
   -7.5000   -7.7942    0.0000 C   0  0  0  0  0  0  0  0  0  0  0  0
   -8.2500   -9.0933    0.0000 C   0  0  0  0  0  0  0  0  0  0  0  0
   -7.5000  -10.3923    0.0000 C   0  0  0  0  0  0  0  0  0  0  0  0
   -6.0000  -10.3923    0.0000 C   0  0  0  0  0  0  0  0  0  0  0  0
   -5.2500   -9.0933    0.0000 C   0  0  0  0  0  0  0  0  0  0  0  0
  1  2  2  0
  2  3  1  0
  3  4  1  0
  4  5  1  0
  5  6  1  0
  6  7  1  0
  7  8  1  0
  8  9  1  0
  9 10  2  0
 10 11  1  0
 11 12  2  0
 12 13  1  0
 13 14  2  0
 14 15  1  0
  2 16  1  0
 16 17  2  0
 17 18  1  0
 18 19  2  0
 19 20  1  0
 20 21  2  0
 15  6  1  0
 21 16  1  0
 14  9  1  0
M  END
>  <assay_chembl_id>  (533) 
CHEMBL3821450

>  <assay_description>  (533) 
Displacement of [3H]LSD from human 5-HT2B receptor expressed in cell membranes after 1 hr by liquid scintillation counting

>  <parent_molecule_chembl_id>  (533) 
CHEMBL3818989

>  <canonical_smiles>  (533) 
O=C(CCCN1CCc2ccccc2C1)c1ccccc1

>  <standard_type>  (533) 
Ki

>  <standard_relation>  (533) 
=

>  <standard_value>  (533) 
273.0

>  <standard_units>  (533) 
nM

>  <target_pref_name>  (533) 
Serotonin 2b (5-HT2b) receptor

>  <target_chembl_id>  (533) 
CHEMBL1833

>  <target_organism>  (533) 
Homo sapiens

>  <pchembl_median>  (533) 
5.85

$$$$
CHEMBL3818200
     RDKit          2D

 23 25  0  0  0  0  0  0  0  0999 V2000
   -9.0000  -12.9904    0.0000 N   0  0  0  0  0  0  0  0  0  0  0  0
   -8.2500  -11.6913    0.0000 C   0  0  0  0  0  0  0  0  0  0  0  0
   -7.5000  -10.3923    0.0000 C   0  0  0  0  0  0  0  0  0  0  0  0
   -8.2500   -9.0933    0.0000 C   0  0  0  0  0  0  0  0  0  0  0  0
   -7.5000   -7.7942    0.0000 C   0  0  0  0  0  0  0  0  0  0  0  0
   -6.0000   -7.7942    0.0000 C   0  0  0  0  0  0  0  0  0  0  0  0
   -5.2500   -6.4952    0.0000 C   0  0  0  0  0  0  0  0  0  0  0  0
   -6.0000   -5.1962    0.0000 O   0  0  0  0  0  0  0  0  0  0  0  0
   -3.7500   -6.4952    0.0000 C   0  0  0  0  0  0  0  0  0  0  0  0
   -3.0000   -5.1962    0.0000 C   0  0  0  0  0  0  0  0  0  0  0  0
   -1.5000   -5.1962    0.0000 C   0  0  0  0  0  0  0  0  0  0  0  0
   -0.7500   -3.8971    0.0000 N   0  0  0  0  0  0  0  0  0  0  0  0
    0.7500   -3.8971    0.0000 C   0  0  0  0  0  0  0  0  0  0  0  0
    1.5000   -2.5981    0.0000 C   0  0  0  0  0  0  0  0  0  0  0  0
    0.7500   -1.2990    0.0000 C   0  0  0  0  0  0  0  0  0  0  0  0
    1.5000    0.0000    0.0000 C   0  0  0  0  0  0  0  0  0  0  0  0
    0.7500    1.2990    0.0000 C   0  0  0  0  0  0  0  0  0  0  0  0
   -0.7500    1.2990    0.0000 C   0  0  0  0  0  0  0  0  0  0  0  0
   -1.5000    0.0000    0.0000 C   0  0  0  0  0  0  0  0  0  0  0  0
   -0.7500   -1.2990    0.0000 C   0  0  0  0  0  0  0  0  0  0  0  0
   -1.5000   -2.5981    0.0000 C   0  0  0  0  0  0  0  0  0  0  0  0
   -5.2500   -9.0933    0.0000 C   0  0  0  0  0  0  0  0  0  0  0  0
   -6.0000  -10.3923    0.0000 C   0  0  0  0  0  0  0  0  0  0  0  0
  1  2  3  0
  2  3  1  0
  3  4  2  0
  4  5  1  0
  5  6  2  0
  6  7  1  0
  7  8  2  0
  7  9  1  0
  9 10  1  0
 10 11  1  0
 11 12  1  0
 12 13  1  0
 13 14  1  0
 14 15  1  0
 15 16  2  0
 16 17  1  0
 17 18  2  0
 18 19  1  0
 19 20  2  0
 20 21  1  0
  6 22  1  0
 22 23  2  0
 23  3  1  0
 21 12  1  0
 20 15  1  0
M  END
>  <assay_chembl_id>  (534) 
CHEMBL3821450

>  <assay_description>  (534) 
Displacement of [3H]LSD from human 5-HT2B receptor expressed in cell membranes after 1 hr by liquid scintillation counting

>  <parent_molecule_chembl_id>  (534) 
CHEMBL3818200

>  <canonical_smiles>  (534) 
N#Cc1ccc(C(=O)CCCN2CCc3ccccc3C2)cc1

>  <standard_type>  (534) 
Ki

>  <standard_relation>  (534) 
=

>  <standard_value>  (534) 
152.0

>  <standard_units>  (534) 
nM

>  <target_pref_name>  (534) 
Serotonin 2b (5-HT2b) receptor

>  <target_chembl_id>  (534) 
CHEMBL1833

>  <target_organism>  (534) 
Homo sapiens

>  <pchembl_median>  (534) 
6.89

$$$$
CHEMBL3819427
     RDKit          2D

 24 26  0  0  0  0  0  0  0  0999 V2000
   -9.7500  -11.6913    0.0000 N   0  0  0  0  0  0  0  0  0  0  0  0
   -8.2500  -11.6913    0.0000 C   0  0  0  0  0  0  0  0  0  0  0  0
   -7.5000  -12.9904    0.0000 O   0  0  0  0  0  0  0  0  0  0  0  0
   -7.5000  -10.3923    0.0000 C   0  0  0  0  0  0  0  0  0  0  0  0
   -8.2500   -9.0933    0.0000 C   0  0  0  0  0  0  0  0  0  0  0  0
   -7.5000   -7.7942    0.0000 C   0  0  0  0  0  0  0  0  0  0  0  0
   -6.0000   -7.7942    0.0000 C   0  0  0  0  0  0  0  0  0  0  0  0
   -5.2500   -6.4952    0.0000 C   0  0  0  0  0  0  0  0  0  0  0  0
   -6.0000   -5.1962    0.0000 O   0  0  0  0  0  0  0  0  0  0  0  0
   -3.7500   -6.4952    0.0000 C   0  0  0  0  0  0  0  0  0  0  0  0
   -3.0000   -5.1962    0.0000 C   0  0  0  0  0  0  0  0  0  0  0  0
   -1.5000   -5.1962    0.0000 C   0  0  0  0  0  0  0  0  0  0  0  0
   -0.7500   -3.8971    0.0000 N   0  0  0  0  0  0  0  0  0  0  0  0
    0.7500   -3.8971    0.0000 C   0  0  0  0  0  0  0  0  0  0  0  0
    1.5000   -2.5981    0.0000 C   0  0  0  0  0  0  0  0  0  0  0  0
    0.7500   -1.2990    0.0000 C   0  0  0  0  0  0  0  0  0  0  0  0
    1.5000    0.0000    0.0000 C   0  0  0  0  0  0  0  0  0  0  0  0
    0.7500    1.2990    0.0000 C   0  0  0  0  0  0  0  0  0  0  0  0
   -0.7500    1.2990    0.0000 C   0  0  0  0  0  0  0  0  0  0  0  0
   -1.5000    0.0000    0.0000 C   0  0  0  0  0  0  0  0  0  0  0  0
   -0.7500   -1.2990    0.0000 C   0  0  0  0  0  0  0  0  0  0  0  0
   -1.5000   -2.5981    0.0000 C   0  0  0  0  0  0  0  0  0  0  0  0
   -5.2500   -9.0933    0.0000 C   0  0  0  0  0  0  0  0  0  0  0  0
   -6.0000  -10.3923    0.0000 C   0  0  0  0  0  0  0  0  0  0  0  0
  1  2  1  0
  2  3  2  0
  2  4  1  0
  4  5  2  0
  5  6  1  0
  6  7  2  0
  7  8  1  0
  8  9  2  0
  8 10  1  0
 10 11  1  0
 11 12  1  0
 12 13  1  0
 13 14  1  0
 14 15  1  0
 15 16  1  0
 16 17  2  0
 17 18  1  0
 18 19  2  0
 19 20  1  0
 20 21  2  0
 21 22  1  0
  7 23  1  0
 23 24  2  0
 24  4  1  0
 22 13  1  0
 21 16  1  0
M  END
>  <assay_chembl_id>  (535) 
CHEMBL3821450

>  <assay_description>  (535) 
Displacement of [3H]LSD from human 5-HT2B receptor expressed in cell membranes after 1 hr by liquid scintillation counting

>  <parent_molecule_chembl_id>  (535) 
CHEMBL3819427

>  <canonical_smiles>  (535) 
NC(=O)c1ccc(C(=O)CCCN2CCc3ccccc3C2)cc1

>  <standard_type>  (535) 
Ki

>  <standard_relation>  (535) 
=

>  <standard_value>  (535) 
587.0

>  <standard_units>  (535) 
nM

>  <target_pref_name>  (535) 
Serotonin 2b (5-HT2b) receptor

>  <target_chembl_id>  (535) 
CHEMBL1833

>  <target_organism>  (535) 
Homo sapiens

>  <pchembl_median>  (535) 
5.37

$$$$
CHEMBL3817898
     RDKit          2D

 23 25  0  0  0  0  0  0  0  0999 V2000
   -9.7500  -11.6913    0.0000 C   0  0  0  0  0  0  0  0  0  0  0  0
   -8.2500  -11.6913    0.0000 O   0  0  0  0  0  0  0  0  0  0  0  0
   -7.5000  -10.3923    0.0000 C   0  0  0  0  0  0  0  0  0  0  0  0
   -8.2500   -9.0933    0.0000 C   0  0  0  0  0  0  0  0  0  0  0  0
   -7.5000   -7.7942    0.0000 C   0  0  0  0  0  0  0  0  0  0  0  0
   -6.0000   -7.7942    0.0000 C   0  0  0  0  0  0  0  0  0  0  0  0
   -5.2500   -6.4952    0.0000 C   0  0  0  0  0  0  0  0  0  0  0  0
   -6.0000   -5.1962    0.0000 O   0  0  0  0  0  0  0  0  0  0  0  0
   -3.7500   -6.4952    0.0000 C   0  0  0  0  0  0  0  0  0  0  0  0
   -3.0000   -5.1962    0.0000 C   0  0  0  0  0  0  0  0  0  0  0  0
   -1.5000   -5.1962    0.0000 C   0  0  0  0  0  0  0  0  0  0  0  0
   -0.7500   -3.8971    0.0000 N   0  0  0  0  0  0  0  0  0  0  0  0
    0.7500   -3.8971    0.0000 C   0  0  0  0  0  0  0  0  0  0  0  0
    1.5000   -2.5981    0.0000 C   0  0  0  0  0  0  0  0  0  0  0  0
    0.7500   -1.2990    0.0000 C   0  0  0  0  0  0  0  0  0  0  0  0
    1.5000    0.0000    0.0000 C   0  0  0  0  0  0  0  0  0  0  0  0
    0.7500    1.2990    0.0000 C   0  0  0  0  0  0  0  0  0  0  0  0
   -0.7500    1.2990    0.0000 C   0  0  0  0  0  0  0  0  0  0  0  0
   -1.5000    0.0000    0.0000 C   0  0  0  0  0  0  0  0  0  0  0  0
   -0.7500   -1.2990    0.0000 C   0  0  0  0  0  0  0  0  0  0  0  0
   -1.5000   -2.5981    0.0000 C   0  0  0  0  0  0  0  0  0  0  0  0
   -5.2500   -9.0933    0.0000 C   0  0  0  0  0  0  0  0  0  0  0  0
   -6.0000  -10.3923    0.0000 C   0  0  0  0  0  0  0  0  0  0  0  0
  1  2  1  0
  2  3  1  0
  3  4  2  0
  4  5  1  0
  5  6  2  0
  6  7  1  0
  7  8  2  0
  7  9  1  0
  9 10  1  0
 10 11  1  0
 11 12  1  0
 12 13  1  0
 13 14  1  0
 14 15  1  0
 15 16  2  0
 16 17  1  0
 17 18  2  0
 18 19  1  0
 19 20  2  0
 20 21  1  0
  6 22  1  0
 22 23  2  0
 23  3  1  0
 21 12  1  0
 20 15  1  0
M  END
>  <assay_chembl_id>  (536) 
CHEMBL3821450

>  <assay_description>  (536) 
Displacement of [3H]LSD from human 5-HT2B receptor expressed in cell membranes after 1 hr by liquid scintillation counting

>  <parent_molecule_chembl_id>  (536) 
CHEMBL3817898

>  <canonical_smiles>  (536) 
COc1ccc(C(=O)CCCN2CCc3ccccc3C2)cc1

>  <standard_type>  (536) 
Ki

>  <standard_relation>  (536) 
=

>  <standard_value>  (536) 
723.0

>  <standard_units>  (536) 
nM

>  <target_pref_name>  (536) 
Serotonin 2b (5-HT2b) receptor

>  <target_chembl_id>  (536) 
CHEMBL1833

>  <target_organism>  (536) 
Homo sapiens

>  <pchembl_median>  (536) 
5.85

$$$$
CHEMBL3818056
     RDKit          2D

 22 24  0  0  0  0  0  0  0  0999 V2000
   -6.0000   -5.1962    0.0000 O   0  0  0  0  0  0  0  0  0  0  0  0
   -5.2500   -6.4952    0.0000 C   0  0  0  0  0  0  0  0  0  0  0  0
   -3.7500   -6.4952    0.0000 C   0  0  0  0  0  0  0  0  0  0  0  0
   -3.0000   -5.1962    0.0000 C   0  0  0  0  0  0  0  0  0  0  0  0
   -1.5000   -5.1962    0.0000 C   0  0  0  0  0  0  0  0  0  0  0  0
   -0.7500   -3.8971    0.0000 N   0  0  0  0  0  0  0  0  0  0  0  0
    0.7500   -3.8971    0.0000 C   0  0  0  0  0  0  0  0  0  0  0  0
    1.5000   -2.5981    0.0000 C   0  0  0  0  0  0  0  0  0  0  0  0
    0.7500   -1.2990    0.0000 C   0  0  0  0  0  0  0  0  0  0  0  0
    1.5000    0.0000    0.0000 C   0  0  0  0  0  0  0  0  0  0  0  0
    0.7500    1.2990    0.0000 C   0  0  0  0  0  0  0  0  0  0  0  0
   -0.7500    1.2990    0.0000 C   0  0  0  0  0  0  0  0  0  0  0  0
   -1.5000    0.0000    0.0000 C   0  0  0  0  0  0  0  0  0  0  0  0
   -0.7500   -1.2990    0.0000 C   0  0  0  0  0  0  0  0  0  0  0  0
   -1.5000   -2.5981    0.0000 C   0  0  0  0  0  0  0  0  0  0  0  0
   -6.0000   -7.7942    0.0000 C   0  0  0  0  0  0  0  0  0  0  0  0
   -7.5000   -7.7942    0.0000 C   0  0  0  0  0  0  0  0  0  0  0  0
   -8.2500   -9.0933    0.0000 C   0  0  0  0  0  0  0  0  0  0  0  0
   -7.5000  -10.3923    0.0000 C   0  0  0  0  0  0  0  0  0  0  0  0
   -8.2500  -11.6913    0.0000 O   0  0  0  0  0  0  0  0  0  0  0  0
   -6.0000  -10.3923    0.0000 C   0  0  0  0  0  0  0  0  0  0  0  0
   -5.2500   -9.0933    0.0000 C   0  0  0  0  0  0  0  0  0  0  0  0
  1  2  2  0
  2  3  1  0
  3  4  1  0
  4  5  1  0
  5  6  1  0
  6  7  1  0
  7  8  1  0
  8  9  1  0
  9 10  2  0
 10 11  1  0
 11 12  2  0
 12 13  1  0
 13 14  2  0
 14 15  1  0
  2 16  1  0
 16 17  2  0
 17 18  1  0
 18 19  2  0
 19 20  1  0
 19 21  1  0
 21 22  2  0
 15  6  1  0
 22 16  1  0
 14  9  1  0
M  END
>  <assay_chembl_id>  (537) 
CHEMBL3821450

>  <assay_description>  (537) 
Displacement of [3H]LSD from human 5-HT2B receptor expressed in cell membranes after 1 hr by liquid scintillation counting

>  <parent_molecule_chembl_id>  (537) 
CHEMBL3818056

>  <canonical_smiles>  (537) 
O=C(CCCN1CCc2ccccc2C1)c1ccc(O)cc1

>  <standard_type>  (537) 
Ki

>  <standard_relation>  (537) 
=

>  <standard_value>  (537) 
358.0

>  <standard_units>  (537) 
nM

>  <target_pref_name>  (537) 
Serotonin 2b (5-HT2b) receptor

>  <target_chembl_id>  (537) 
CHEMBL1833

>  <target_organism>  (537) 
Homo sapiens

>  <pchembl_median>  (537) 
7.0

$$$$
CHEMBL3818047
     RDKit          2D

 22 24  0  0  0  0  0  0  0  0999 V2000
   -6.0000   -5.1962    0.0000 O   0  0  0  0  0  0  0  0  0  0  0  0
   -5.2500   -6.4952    0.0000 C   0  0  0  0  0  0  0  0  0  0  0  0
   -3.7500   -6.4952    0.0000 C   0  0  0  0  0  0  0  0  0  0  0  0
   -3.0000   -5.1962    0.0000 C   0  0  0  0  0  0  0  0  0  0  0  0
   -1.5000   -5.1962    0.0000 C   0  0  0  0  0  0  0  0  0  0  0  0
   -0.7500   -3.8971    0.0000 N   0  0  0  0  0  0  0  0  0  0  0  0
    0.7500   -3.8971    0.0000 C   0  0  0  0  0  0  0  0  0  0  0  0
    1.5000   -2.5981    0.0000 C   0  0  0  0  0  0  0  0  0  0  0  0
    0.7500   -1.2990    0.0000 C   0  0  0  0  0  0  0  0  0  0  0  0
    1.5000    0.0000    0.0000 C   0  0  0  0  0  0  0  0  0  0  0  0
    0.7500    1.2990    0.0000 C   0  0  0  0  0  0  0  0  0  0  0  0
   -0.7500    1.2990    0.0000 C   0  0  0  0  0  0  0  0  0  0  0  0
   -1.5000    0.0000    0.0000 C   0  0  0  0  0  0  0  0  0  0  0  0
   -0.7500   -1.2990    0.0000 C   0  0  0  0  0  0  0  0  0  0  0  0
   -1.5000   -2.5981    0.0000 C   0  0  0  0  0  0  0  0  0  0  0  0
   -6.0000   -7.7942    0.0000 C   0  0  0  0  0  0  0  0  0  0  0  0
   -7.5000   -7.7942    0.0000 C   0  0  0  0  0  0  0  0  0  0  0  0
   -8.2500   -9.0933    0.0000 C   0  0  0  0  0  0  0  0  0  0  0  0
   -7.5000  -10.3923    0.0000 C   0  0  0  0  0  0  0  0  0  0  0  0
   -8.2500  -11.6913    0.0000 Cl  0  0  0  0  0  0  0  0  0  0  0  0
   -6.0000  -10.3923    0.0000 C   0  0  0  0  0  0  0  0  0  0  0  0
   -5.2500   -9.0933    0.0000 C   0  0  0  0  0  0  0  0  0  0  0  0
  1  2  2  0
  2  3  1  0
  3  4  1  0
  4  5  1  0
  5  6  1  0
  6  7  1  0
  7  8  1  0
  8  9  1  0
  9 10  2  0
 10 11  1  0
 11 12  2  0
 12 13  1  0
 13 14  2  0
 14 15  1  0
  2 16  1  0
 16 17  2  0
 17 18  1  0
 18 19  2  0
 19 20  1  0
 19 21  1  0
 21 22  2  0
 15  6  1  0
 22 16  1  0
 14  9  1  0
M  END
>  <assay_chembl_id>  (538) 
CHEMBL3821450

>  <assay_description>  (538) 
Displacement of [3H]LSD from human 5-HT2B receptor expressed in cell membranes after 1 hr by liquid scintillation counting

>  <parent_molecule_chembl_id>  (538) 
CHEMBL3818047

>  <canonical_smiles>  (538) 
O=C(CCCN1CCc2ccccc2C1)c1ccc(Cl)cc1

>  <standard_type>  (538) 
Ki

>  <standard_relation>  (538) 
=

>  <standard_value>  (538) 
232.0

>  <standard_units>  (538) 
nM

>  <target_pref_name>  (538) 
Serotonin 2b (5-HT2b) receptor

>  <target_chembl_id>  (538) 
CHEMBL1833

>  <target_organism>  (538) 
Homo sapiens

>  <pchembl_median>  (538) 
5.85

$$$$
CHEMBL3819567
     RDKit          2D

 30 34  0  0  0  0  0  0  0  0999 V2000
   -1.3273   -2.9812    0.0000 O   0  0  0  0  0  0  0  0  0  0  0  0
    0.1399   -2.6694    0.0000 C   0  0  0  0  0  0  0  0  0  0  0  0
    1.2546   -3.6731    0.0000 N   0  0  0  0  0  0  0  0  0  0  0  0
    2.5537   -2.9231    0.0000 C   0  0  0  0  0  0  0  0  0  0  0  0
    2.2418   -1.4558    0.0000 N   0  0  0  0  0  0  0  0  0  0  0  0
    3.2455   -0.3411    0.0000 C   0  0  0  0  0  0  0  0  0  0  0  0
    4.7127   -0.6530    0.0000 C   0  0  0  0  0  0  0  0  0  0  0  0
    5.7164    0.4617    0.0000 C   0  0  0  0  0  0  0  0  0  0  0  0
    5.2529    1.8883    0.0000 C   0  0  0  0  0  0  0  0  0  0  0  0
    3.7856    2.2002    0.0000 C   0  0  0  0  0  0  0  0  0  0  0  0
    2.7820    1.0855    0.0000 C   0  0  0  0  0  0  0  0  0  0  0  0
    0.7500   -1.2990    0.0000 C   0  0  0  0  0  0  0  0  0  0  0  0
    1.5000    0.0000    0.0000 C   0  0  0  0  0  0  0  0  0  0  0  0
    0.7500    1.2990    0.0000 C   0  0  0  0  0  0  0  0  0  0  0  0
   -0.7500    1.2990    0.0000 N   0  0  0  0  0  0  0  0  0  0  0  0
   -1.5000    2.5981    0.0000 C   0  0  0  0  0  0  0  0  0  0  0  0
   -0.7500    3.8971    0.0000 C   0  0  0  0  0  0  0  0  0  0  0  0
   -1.5000    5.1962    0.0000 C   0  0  0  0  0  0  0  0  0  0  0  0
   -0.7500    6.4952    0.0000 C   0  0  0  0  0  0  0  0  0  0  0  0
   -1.5000    7.7942    0.0000 C   0  0  0  0  0  0  0  0  0  0  0  0
   -0.8899    9.1645    0.0000 N   0  0  0  0  0  0  0  0  0  0  0  0
   -2.0046   10.1682    0.0000 C   0  0  0  0  0  0  0  0  0  0  0  0
   -2.0046   11.6682    0.0000 C   0  0  0  0  0  0  0  0  0  0  0  0
   -3.3037   12.4182    0.0000 C   0  0  0  0  0  0  0  0  0  0  0  0
   -4.6027   11.6682    0.0000 C   0  0  0  0  0  0  0  0  0  0  0  0
   -4.6027   10.1682    0.0000 C   0  0  0  0  0  0  0  0  0  0  0  0
   -3.3037    9.4182    0.0000 C   0  0  0  0  0  0  0  0  0  0  0  0
   -2.9918    7.9510    0.0000 S   0  0  0  0  0  0  0  0  0  0  0  0
   -1.5000    0.0000    0.0000 C   0  0  0  0  0  0  0  0  0  0  0  0
   -0.7500   -1.2990    0.0000 C   0  0  0  0  0  0  0  0  0  0  0  0
  1  2  2  0
  2  3  1  0
  3  4  1  0
  4  5  1  0
  5  6  1  0
  6  7  2  0
  7  8  1  0
  8  9  2  0
  9 10  1  0
 10 11  2  0
  5 12  1  0
 12 13  1  0
 13 14  1  0
 14 15  1  0
 15 16  1  0
 16 17  1  0
 17 18  1  0
 18 19  1  0
 19 20  1  0
 20 21  2  0
 21 22  1  0
 22 23  2  0
 23 24  1  0
 24 25  2  0
 25 26  1  0
 26 27  2  0
 27 28  1  0
 15 29  1  0
 29 30  1  0
 12  2  1  0
 28 20  1  0
 11  6  1  0
 30 12  1  0
 27 22  1  0
M  END
>  <assay_chembl_id>  (539) 
CHEMBL3820063

>  <assay_description>  (539) 
Displacement of [3H]LSD from human recombinant 5HT2B receptor incubated for 1.5 hrs by microbeta scintillation counting method

>  <parent_molecule_chembl_id>  (539) 
CHEMBL3819567

>  <canonical_smiles>  (539) 
O=C1NCN(c2ccccc2)C12CCN(CCCCc1nc3ccccc3s1)CC2

>  <standard_type>  (539) 
Ki

>  <standard_relation>  (539) 
=

>  <standard_value>  (539) 
122.0

>  <standard_units>  (539) 
nM

>  <target_pref_name>  (539) 
Serotonin 2b (5-HT2b) receptor

>  <target_chembl_id>  (539) 
CHEMBL1833

>  <target_organism>  (539) 
Homo sapiens

>  <pchembl_median>  (539) 
5.96

$$$$
CHEMBL3818124
     RDKit          2D

 31 35  0  0  0  0  0  0  0  0999 V2000
   -1.3273   -2.9812    0.0000 O   0  0  0  0  0  0  0  0  0  0  0  0
    0.1399   -2.6694    0.0000 C   0  0  0  0  0  0  0  0  0  0  0  0
    1.2546   -3.6731    0.0000 N   0  0  0  0  0  0  0  0  0  0  0  0
    2.5537   -2.9231    0.0000 C   0  0  0  0  0  0  0  0  0  0  0  0
    2.2418   -1.4558    0.0000 N   0  0  0  0  0  0  0  0  0  0  0  0
    3.2455   -0.3411    0.0000 C   0  0  0  0  0  0  0  0  0  0  0  0
    4.7127   -0.6530    0.0000 C   0  0  0  0  0  0  0  0  0  0  0  0
    5.7164    0.4617    0.0000 C   0  0  0  0  0  0  0  0  0  0  0  0
    5.2529    1.8883    0.0000 C   0  0  0  0  0  0  0  0  0  0  0  0
    3.7856    2.2002    0.0000 C   0  0  0  0  0  0  0  0  0  0  0  0
    2.7820    1.0855    0.0000 C   0  0  0  0  0  0  0  0  0  0  0  0
    0.7500   -1.2990    0.0000 C   0  0  0  0  0  0  0  0  0  0  0  0
    1.5000    0.0000    0.0000 C   0  0  0  0  0  0  0  0  0  0  0  0
    0.7500    1.2990    0.0000 C   0  0  0  0  0  0  0  0  0  0  0  0
   -0.7500    1.2990    0.0000 N   0  0  0  0  0  0  0  0  0  0  0  0
   -1.5000    2.5981    0.0000 C   0  0  0  0  0  0  0  0  0  0  0  0
   -0.7500    3.8971    0.0000 C   0  0  0  0  0  0  0  0  0  0  0  0
   -1.5000    5.1962    0.0000 C   0  0  0  0  0  0  0  0  0  0  0  0
   -0.7500    6.4952    0.0000 C   0  0  0  0  0  0  0  0  0  0  0  0
   -1.5000    7.7942    0.0000 C   0  0  0  0  0  0  0  0  0  0  0  0
   -0.8899    9.1645    0.0000 N   0  0  0  0  0  0  0  0  0  0  0  0
   -2.0046   10.1682    0.0000 C   0  0  0  0  0  0  0  0  0  0  0  0
   -2.0046   11.6682    0.0000 C   0  0  0  0  0  0  0  0  0  0  0  0
   -3.3037   12.4182    0.0000 C   0  0  0  0  0  0  0  0  0  0  0  0
   -3.3037   13.9182    0.0000 Cl  0  0  0  0  0  0  0  0  0  0  0  0
   -4.6027   11.6682    0.0000 C   0  0  0  0  0  0  0  0  0  0  0  0
   -4.6027   10.1682    0.0000 C   0  0  0  0  0  0  0  0  0  0  0  0
   -3.3037    9.4182    0.0000 C   0  0  0  0  0  0  0  0  0  0  0  0
   -2.9918    7.9510    0.0000 S   0  0  0  0  0  0  0  0  0  0  0  0
   -1.5000    0.0000    0.0000 C   0  0  0  0  0  0  0  0  0  0  0  0
   -0.7500   -1.2990    0.0000 C   0  0  0  0  0  0  0  0  0  0  0  0
  1  2  2  0
  2  3  1  0
  3  4  1  0
  4  5  1  0
  5  6  1  0
  6  7  2  0
  7  8  1  0
  8  9  2  0
  9 10  1  0
 10 11  2  0
  5 12  1  0
 12 13  1  0
 13 14  1  0
 14 15  1  0
 15 16  1  0
 16 17  1  0
 17 18  1  0
 18 19  1  0
 19 20  1  0
 20 21  2  0
 21 22  1  0
 22 23  2  0
 23 24  1  0
 24 25  1  0
 24 26  2  0
 26 27  1  0
 27 28  2  0
 28 29  1  0
 15 30  1  0
 30 31  1  0
 12  2  1  0
 29 20  1  0
 11  6  1  0
 31 12  1  0
 28 22  1  0
M  END
>  <assay_chembl_id>  (540) 
CHEMBL3820063

>  <assay_description>  (540) 
Displacement of [3H]LSD from human recombinant 5HT2B receptor incubated for 1.5 hrs by microbeta scintillation counting method

>  <parent_molecule_chembl_id>  (540) 
CHEMBL3818124

>  <canonical_smiles>  (540) 
O=C1NCN(c2ccccc2)C12CCN(CCCCc1nc3cc(Cl)ccc3s1)CC2

>  <standard_type>  (540) 
Ki

>  <standard_relation>  (540) 
=

>  <standard_value>  (540) 
36.0

>  <standard_units>  (540) 
nM

>  <target_pref_name>  (540) 
Serotonin 2b (5-HT2b) receptor

>  <target_chembl_id>  (540) 
CHEMBL1833

>  <target_organism>  (540) 
Homo sapiens

>  <pchembl_median>  (540) 
7.01

$$$$
CHEMBL2037526
     RDKit          2D

 32 36  0  0  0  0  0  0  0  0999 V2000
    3.0000   -7.7942    0.0000 O   0  0  0  0  0  0  0  0  0  0  0  0
    1.5000   -7.7942    0.0000 C   0  0  0  0  0  0  0  0  0  0  0  0
    0.7500   -6.4952    0.0000 C   0  0  0  0  0  0  0  0  0  0  0  0
    1.5000   -5.1962    0.0000 C   0  0  0  0  0  0  0  0  0  0  0  0
    0.7500   -3.8971    0.0000 C   0  0  0  0  0  0  0  0  0  0  0  0
    1.5000   -2.5981    0.0000 C   0  0  0  0  0  0  0  0  0  0  0  0
    0.7500   -1.2990    0.0000 N   0  0  0  0  0  0  0  0  0  0  0  0
    1.5000    0.0000    0.0000 C   0  0  0  0  0  0  0  0  0  0  0  0
    0.7500    1.2990    0.0000 C   0  0  0  0  0  0  0  0  0  0  0  0
   -0.7500    1.2990    0.0000 C   0  0  0  0  0  0  0  0  0  0  0  0
   -1.5000    0.0000    0.0000 C   0  0  0  0  0  0  0  0  0  0  0  0
   -0.7500   -1.2990    0.0000 C   0  0  0  0  0  0  0  0  0  0  0  0
   -2.2418    1.4558    0.0000 C   0  0  0  0  0  0  0  0  0  0  0  0
   -3.2455    0.3411    0.0000 O   0  0  0  0  0  0  0  0  0  0  0  0
   -2.5537    2.9231    0.0000 N   0  0  0  0  0  0  0  0  0  0  0  0
   -1.2546    3.6731    0.0000 C   0  0  0  0  0  0  0  0  0  0  0  0
   -0.1399    2.6694    0.0000 N   0  0  0  0  0  0  0  0  0  0  0  0
    1.3273    2.9812    0.0000 C   0  0  0  0  0  0  0  0  0  0  0  0
    2.3310    1.8665    0.0000 C   0  0  0  0  0  0  0  0  0  0  0  0
    3.7982    2.1784    0.0000 C   0  0  0  0  0  0  0  0  0  0  0  0
    4.2618    3.6050    0.0000 C   0  0  0  0  0  0  0  0  0  0  0  0
    3.2581    4.7197    0.0000 C   0  0  0  0  0  0  0  0  0  0  0  0
    1.7909    4.4078    0.0000 C   0  0  0  0  0  0  0  0  0  0  0  0
    0.7500   -9.0933    0.0000 C   0  0  0  0  0  0  0  0  0  0  0  0
   -0.7418   -9.2501    0.0000 N   0  0  0  0  0  0  0  0  0  0  0  0
   -1.0537  -10.7173    0.0000 C   0  0  0  0  0  0  0  0  0  0  0  0
   -2.3527  -11.4673    0.0000 C   0  0  0  0  0  0  0  0  0  0  0  0
   -2.3527  -12.9673    0.0000 C   0  0  0  0  0  0  0  0  0  0  0  0
   -1.0537  -13.7173    0.0000 C   0  0  0  0  0  0  0  0  0  0  0  0
    0.2454  -12.9673    0.0000 C   0  0  0  0  0  0  0  0  0  0  0  0
    0.2454  -11.4673    0.0000 C   0  0  0  0  0  0  0  0  0  0  0  0
    1.3601  -10.4636    0.0000 S   0  0  0  0  0  0  0  0  0  0  0  0
  1  2  2  0
  2  3  1  0
  3  4  1  0
  4  5  1  0
  5  6  1  0
  6  7  1  0
  7  8  1  0
  8  9  1  0
  9 10  1  0
 10 11  1  0
 11 12  1  0
 10 13  1  0
 13 14  2  0
 13 15  1  0
 15 16  1  0
 16 17  1  0
 17 18  1  0
 18 19  2  0
 19 20  1  0
 20 21  2  0
 21 22  1  0
 22 23  2  0
  2 24  1  0
 24 25  2  0
 25 26  1  0
 26 27  2  0
 27 28  1  0
 28 29  2  0
 29 30  1  0
 30 31  2  0
 31 32  1  0
 12  7  1  0
 23 18  1  0
 32 24  1  0
 17 10  1  0
 31 26  1  0
M  END
>  <assay_chembl_id>  (541) 
CHEMBL3820063

>  <assay_description>  (541) 
Displacement of [3H]LSD from human recombinant 5HT2B receptor incubated for 1.5 hrs by microbeta scintillation counting method

>  <parent_molecule_chembl_id>  (541) 
CHEMBL2037526

>  <canonical_smiles>  (541) 
O=C(CCCCN1CCC2(CC1)C(=O)NCN2c1ccccc1)c1nc2ccccc2s1

>  <standard_type>  (541) 
Ki

>  <standard_relation>  (541) 
=

>  <standard_value>  (541) 
1578.0

>  <standard_units>  (541) 
nM

>  <target_pref_name>  (541) 
Serotonin 2b (5-HT2b) receptor

>  <target_chembl_id>  (541) 
CHEMBL1833

>  <target_organism>  (541) 
Homo sapiens

>  <pchembl_median>  (541) 
7.0

$$$$
CHEMBL3818935
     RDKit          2D

 30 34  0  0  0  0  0  0  0  0999 V2000
   -1.3273   -2.9812    0.0000 O   0  0  0  0  0  0  0  0  0  0  0  0
    0.1399   -2.6694    0.0000 C   0  0  0  0  0  0  0  0  0  0  0  0
    1.2546   -3.6731    0.0000 N   0  0  0  0  0  0  0  0  0  0  0  0
    2.5537   -2.9231    0.0000 C   0  0  0  0  0  0  0  0  0  0  0  0
    2.2418   -1.4558    0.0000 N   0  0  0  0  0  0  0  0  0  0  0  0
    3.2455   -0.3411    0.0000 C   0  0  0  0  0  0  0  0  0  0  0  0
    4.7127   -0.6530    0.0000 C   0  0  0  0  0  0  0  0  0  0  0  0
    5.7164    0.4617    0.0000 C   0  0  0  0  0  0  0  0  0  0  0  0
    5.2529    1.8883    0.0000 C   0  0  0  0  0  0  0  0  0  0  0  0
    3.7856    2.2002    0.0000 C   0  0  0  0  0  0  0  0  0  0  0  0
    2.7820    1.0855    0.0000 C   0  0  0  0  0  0  0  0  0  0  0  0
    0.7500   -1.2990    0.0000 C   0  0  0  0  0  0  0  0  0  0  0  0
    1.5000    0.0000    0.0000 C   0  0  0  0  0  0  0  0  0  0  0  0
    0.7500    1.2990    0.0000 C   0  0  0  0  0  0  0  0  0  0  0  0
   -0.7500    1.2990    0.0000 N   0  0  0  0  0  0  0  0  0  0  0  0
   -1.5000    2.5981    0.0000 C   0  0  0  0  0  0  0  0  0  0  0  0
   -0.7500    3.8971    0.0000 C   0  0  0  0  0  0  0  0  0  0  0  0
   -1.5000    5.1962    0.0000 C   0  0  0  0  0  0  0  0  0  0  0  0
   -0.7500    6.4952    0.0000 C   0  0  0  0  0  0  0  0  0  0  0  0
   -1.5000    7.7942    0.0000 C   0  0  0  0  0  0  0  0  0  0  0  0
   -0.8899    9.1645    0.0000 N   0  0  0  0  0  0  0  0  0  0  0  0
   -2.0046   10.1682    0.0000 C   0  0  0  0  0  0  0  0  0  0  0  0
   -2.0046   11.6682    0.0000 C   0  0  0  0  0  0  0  0  0  0  0  0
   -3.3037   12.4182    0.0000 C   0  0  0  0  0  0  0  0  0  0  0  0
   -4.6027   11.6682    0.0000 C   0  0  0  0  0  0  0  0  0  0  0  0
   -4.6027   10.1682    0.0000 C   0  0  0  0  0  0  0  0  0  0  0  0
   -3.3037    9.4182    0.0000 C   0  0  0  0  0  0  0  0  0  0  0  0
   -2.9918    7.9510    0.0000 O   0  0  0  0  0  0  0  0  0  0  0  0
   -1.5000    0.0000    0.0000 C   0  0  0  0  0  0  0  0  0  0  0  0
   -0.7500   -1.2990    0.0000 C   0  0  0  0  0  0  0  0  0  0  0  0
  1  2  2  0
  2  3  1  0
  3  4  1  0
  4  5  1  0
  5  6  1  0
  6  7  2  0
  7  8  1  0
  8  9  2  0
  9 10  1  0
 10 11  2  0
  5 12  1  0
 12 13  1  0
 13 14  1  0
 14 15  1  0
 15 16  1  0
 16 17  1  0
 17 18  1  0
 18 19  1  0
 19 20  1  0
 20 21  2  0
 21 22  1  0
 22 23  2  0
 23 24  1  0
 24 25  2  0
 25 26  1  0
 26 27  2  0
 27 28  1  0
 15 29  1  0
 29 30  1  0
 12  2  1  0
 28 20  1  0
 11  6  1  0
 30 12  1  0
 27 22  1  0
M  END
>  <assay_chembl_id>  (542) 
CHEMBL3820063

>  <assay_description>  (542) 
Displacement of [3H]LSD from human recombinant 5HT2B receptor incubated for 1.5 hrs by microbeta scintillation counting method

>  <parent_molecule_chembl_id>  (542) 
CHEMBL3818935

>  <canonical_smiles>  (542) 
O=C1NCN(c2ccccc2)C12CCN(CCCCc1nc3ccccc3o1)CC2

>  <standard_type>  (542) 
Ki

>  <standard_relation>  (542) 
=

>  <standard_value>  (542) 
905.0

>  <standard_units>  (542) 
nM

>  <target_pref_name>  (542) 
Serotonin 2b (5-HT2b) receptor

>  <target_chembl_id>  (542) 
CHEMBL1833

>  <target_organism>  (542) 
Homo sapiens

>  <pchembl_median>  (542) 
6.97

$$$$
CHEMBL3818478
     RDKit          2D

 30 34  0  0  0  0  0  0  0  0999 V2000
   -1.3273   -2.9812    0.0000 O   0  0  0  0  0  0  0  0  0  0  0  0
    0.1399   -2.6694    0.0000 C   0  0  0  0  0  0  0  0  0  0  0  0
    1.2546   -3.6731    0.0000 N   0  0  0  0  0  0  0  0  0  0  0  0
    2.5537   -2.9231    0.0000 C   0  0  0  0  0  0  0  0  0  0  0  0
    2.2418   -1.4558    0.0000 N   0  0  0  0  0  0  0  0  0  0  0  0
    3.2455   -0.3411    0.0000 C   0  0  0  0  0  0  0  0  0  0  0  0
    4.7127   -0.6530    0.0000 C   0  0  0  0  0  0  0  0  0  0  0  0
    5.7164    0.4617    0.0000 C   0  0  0  0  0  0  0  0  0  0  0  0
    5.2529    1.8883    0.0000 C   0  0  0  0  0  0  0  0  0  0  0  0
    3.7856    2.2002    0.0000 C   0  0  0  0  0  0  0  0  0  0  0  0
    2.7820    1.0855    0.0000 C   0  0  0  0  0  0  0  0  0  0  0  0
    0.7500   -1.2990    0.0000 C   0  0  0  0  0  0  0  0  0  0  0  0
    1.5000    0.0000    0.0000 C   0  0  0  0  0  0  0  0  0  0  0  0
    0.7500    1.2990    0.0000 C   0  0  0  0  0  0  0  0  0  0  0  0
   -0.7500    1.2990    0.0000 N   0  0  0  0  0  0  0  0  0  0  0  0
   -1.5000    2.5981    0.0000 C   0  0  0  0  0  0  0  0  0  0  0  0
   -0.7500    3.8971    0.0000 C   0  0  0  0  0  0  0  0  0  0  0  0
   -1.5000    5.1962    0.0000 C   0  0  0  0  0  0  0  0  0  0  0  0
   -0.7500    6.4952    0.0000 C   0  0  0  0  0  0  0  0  0  0  0  0
   -1.5000    7.7942    0.0000 C   0  0  0  0  0  0  0  0  0  0  0  0
   -2.9918    7.9510    0.0000 C   0  0  0  0  0  0  0  0  0  0  0  0
   -3.3037    9.4182    0.0000 N   0  0  0  0  0  0  0  0  0  0  0  0
   -2.0046   10.1682    0.0000 C   0  0  0  0  0  0  0  0  0  0  0  0
   -1.6927   11.6355    0.0000 C   0  0  0  0  0  0  0  0  0  0  0  0
   -0.2662   12.0990    0.0000 C   0  0  0  0  0  0  0  0  0  0  0  0
    0.8486   11.0953    0.0000 C   0  0  0  0  0  0  0  0  0  0  0  0
    0.5367    9.6281    0.0000 C   0  0  0  0  0  0  0  0  0  0  0  0
   -0.8899    9.1645    0.0000 C   0  0  0  0  0  0  0  0  0  0  0  0
   -1.5000    0.0000    0.0000 C   0  0  0  0  0  0  0  0  0  0  0  0
   -0.7500   -1.2990    0.0000 C   0  0  0  0  0  0  0  0  0  0  0  0
  1  2  2  0
  2  3  1  0
  3  4  1  0
  4  5  1  0
  5  6  1  0
  6  7  2  0
  7  8  1  0
  8  9  2  0
  9 10  1  0
 10 11  2  0
  5 12  1  0
 12 13  1  0
 13 14  1  0
 14 15  1  0
 15 16  1  0
 16 17  1  0
 17 18  1  0
 18 19  1  0
 19 20  1  0
 20 21  2  0
 21 22  1  0
 22 23  1  0
 23 24  2  0
 24 25  1  0
 25 26  2  0
 26 27  1  0
 27 28  2  0
 15 29  1  0
 29 30  1  0
 12  2  1  0
 28 20  1  0
 11  6  1  0
 30 12  1  0
 28 23  1  0
M  END
>  <assay_chembl_id>  (543) 
CHEMBL3820063

>  <assay_description>  (543) 
Displacement of [3H]LSD from human recombinant 5HT2B receptor incubated for 1.5 hrs by microbeta scintillation counting method

>  <parent_molecule_chembl_id>  (543) 
CHEMBL3818478

>  <canonical_smiles>  (543) 
O=C1NCN(c2ccccc2)C12CCN(CCCCc1c[nH]c3ccccc13)CC2

>  <standard_type>  (543) 
Ki

>  <standard_relation>  (543) 
=

>  <standard_value>  (543) 
202.0

>  <standard_units>  (543) 
nM

>  <target_pref_name>  (543) 
Serotonin 2b (5-HT2b) receptor

>  <target_chembl_id>  (543) 
CHEMBL1833

>  <target_organism>  (543) 
Homo sapiens

>  <pchembl_median>  (543) 
6.09

$$$$
CHEMBL3819153
     RDKit          2D

 30 34  0  0  0  0  0  0  0  0999 V2000
   -0.0000   -5.1073    0.0000 O   0  0  0  0  0  0  0  0  0  0  0  0
   -0.0000   -3.6073    0.0000 C   0  0  0  0  0  0  0  0  0  0  0  0
    1.2135   -2.7256    0.0000 N   0  0  0  0  0  0  0  0  0  0  0  0
    0.7500   -1.2990    0.0000 C   0  0  0  0  0  0  0  0  0  0  0  0
    1.5000    0.0000    0.0000 C   0  0  0  0  0  0  0  0  0  0  0  0
    0.7500    1.2990    0.0000 C   0  0  0  0  0  0  0  0  0  0  0  0
    1.5000    2.5981    0.0000 Cl  0  0  0  0  0  0  0  0  0  0  0  0
   -0.7500    1.2990    0.0000 C   0  0  0  0  0  0  0  0  0  0  0  0
   -1.5000    0.0000    0.0000 C   0  0  0  0  0  0  0  0  0  0  0  0
   -0.7500   -1.2990    0.0000 C   0  0  0  0  0  0  0  0  0  0  0  0
   -1.2135   -2.7256    0.0000 N   0  0  0  0  0  0  0  0  0  0  0  0
   -2.6401   -3.1891    0.0000 C   0  0  0  0  0  0  0  0  0  0  0  0
   -3.7548   -2.1855    0.0000 C   0  0  0  0  0  0  0  0  0  0  0  0
   -5.1814   -2.6490    0.0000 C   0  0  0  0  0  0  0  0  0  0  0  0
   -5.4933   -4.1162    0.0000 N   0  0  0  0  0  0  0  0  0  0  0  0
   -6.9199   -4.5797    0.0000 C   0  0  0  0  0  0  0  0  0  0  0  0
   -8.0346   -3.5760    0.0000 C   0  0  0  0  0  0  0  0  0  0  0  0
   -9.4612   -4.0396    0.0000 C   0  0  0  0  0  0  0  0  0  0  0  0
  -10.5759   -3.0359    0.0000 C   0  0  0  0  0  0  0  0  0  0  0  0
  -12.0025   -3.4994    0.0000 C   0  0  0  0  0  0  0  0  0  0  0  0
  -13.2160   -2.6177    0.0000 N   0  0  0  0  0  0  0  0  0  0  0  0
  -14.4295   -3.4994    0.0000 C   0  0  0  0  0  0  0  0  0  0  0  0
  -15.8967   -3.1875    0.0000 C   0  0  0  0  0  0  0  0  0  0  0  0
  -16.9004   -4.3022    0.0000 C   0  0  0  0  0  0  0  0  0  0  0  0
  -16.4369   -5.7288    0.0000 C   0  0  0  0  0  0  0  0  0  0  0  0
  -14.9697   -6.0407    0.0000 C   0  0  0  0  0  0  0  0  0  0  0  0
  -13.9660   -4.9260    0.0000 C   0  0  0  0  0  0  0  0  0  0  0  0
  -12.4660   -4.9260    0.0000 O   0  0  0  0  0  0  0  0  0  0  0  0
   -4.3786   -5.1199    0.0000 C   0  0  0  0  0  0  0  0  0  0  0  0
   -2.9520   -4.6564    0.0000 C   0  0  0  0  0  0  0  0  0  0  0  0
  1  2  2  0
  2  3  1  0
  3  4  1  0
  4  5  2  0
  5  6  1  0
  6  7  1  0
  6  8  2  0
  8  9  1  0
  9 10  2  0
 10 11  1  0
 11 12  1  0
 12 13  1  0
 13 14  1  0
 14 15  1  0
 15 16  1  0
 16 17  1  0
 17 18  1  0
 18 19  1  0
 19 20  1  0
 20 21  2  0
 21 22  1  0
 22 23  2  0
 23 24  1  0
 24 25  2  0
 25 26  1  0
 26 27  2  0
 27 28  1  0
 15 29  1  0
 29 30  1  0
 11  2  1  0
 30 12  1  0
 10  4  1  0
 28 20  1  0
 27 22  1  0
M  END
>  <assay_chembl_id>  (544) 
CHEMBL3820063

>  <assay_description>  (544) 
Displacement of [3H]LSD from human recombinant 5HT2B receptor incubated for 1.5 hrs by microbeta scintillation counting method

>  <parent_molecule_chembl_id>  (544) 
CHEMBL3819153

>  <canonical_smiles>  (544) 
O=c1[nH]c2cc(Cl)ccc2n1C1CCN(CCCCc2nc3ccccc3o2)CC1

>  <standard_type>  (544) 
Ki

>  <standard_relation>  (544) 
=

>  <standard_value>  (544) 
515.0

>  <standard_units>  (544) 
nM

>  <target_pref_name>  (544) 
Serotonin 2b (5-HT2b) receptor

>  <target_chembl_id>  (544) 
CHEMBL1833

>  <target_organism>  (544) 
Homo sapiens

>  <pchembl_median>  (544) 
5.12

$$$$
CHEMBL3818805
     RDKit          2D

 30 34  0  0  0  0  0  0  0  0999 V2000
   -0.0000   -5.1073    0.0000 O   0  0  0  0  0  0  0  0  0  0  0  0
   -0.0000   -3.6073    0.0000 C   0  0  0  0  0  0  0  0  0  0  0  0
    1.2135   -2.7256    0.0000 N   0  0  0  0  0  0  0  0  0  0  0  0
    0.7500   -1.2990    0.0000 C   0  0  0  0  0  0  0  0  0  0  0  0
    1.5000    0.0000    0.0000 C   0  0  0  0  0  0  0  0  0  0  0  0
    0.7500    1.2990    0.0000 C   0  0  0  0  0  0  0  0  0  0  0  0
    1.5000    2.5981    0.0000 Cl  0  0  0  0  0  0  0  0  0  0  0  0
   -0.7500    1.2990    0.0000 C   0  0  0  0  0  0  0  0  0  0  0  0
   -1.5000    0.0000    0.0000 C   0  0  0  0  0  0  0  0  0  0  0  0
   -0.7500   -1.2990    0.0000 C   0  0  0  0  0  0  0  0  0  0  0  0
   -1.2135   -2.7256    0.0000 N   0  0  0  0  0  0  0  0  0  0  0  0
   -2.6401   -3.1891    0.0000 C   0  0  0  0  0  0  0  0  0  0  0  0
   -3.7548   -2.1855    0.0000 C   0  0  0  0  0  0  0  0  0  0  0  0
   -5.1814   -2.6490    0.0000 C   0  0  0  0  0  0  0  0  0  0  0  0
   -5.4933   -4.1162    0.0000 N   0  0  0  0  0  0  0  0  0  0  0  0
   -6.9199   -4.5797    0.0000 C   0  0  0  0  0  0  0  0  0  0  0  0
   -8.0346   -3.5760    0.0000 C   0  0  0  0  0  0  0  0  0  0  0  0
   -9.4612   -4.0396    0.0000 C   0  0  0  0  0  0  0  0  0  0  0  0
  -10.5759   -3.0359    0.0000 C   0  0  0  0  0  0  0  0  0  0  0  0
  -12.0025   -3.4994    0.0000 C   0  0  0  0  0  0  0  0  0  0  0  0
  -12.4660   -4.9260    0.0000 C   0  0  0  0  0  0  0  0  0  0  0  0
  -13.9660   -4.9260    0.0000 N   0  0  0  0  0  0  0  0  0  0  0  0
  -14.4295   -3.4994    0.0000 C   0  0  0  0  0  0  0  0  0  0  0  0
  -15.7998   -2.8893    0.0000 C   0  0  0  0  0  0  0  0  0  0  0  0
  -15.9566   -1.3975    0.0000 C   0  0  0  0  0  0  0  0  0  0  0  0
  -14.7431   -0.5158    0.0000 C   0  0  0  0  0  0  0  0  0  0  0  0
  -13.3728   -1.1259    0.0000 C   0  0  0  0  0  0  0  0  0  0  0  0
  -13.2160   -2.6177    0.0000 C   0  0  0  0  0  0  0  0  0  0  0  0
   -4.3786   -5.1199    0.0000 C   0  0  0  0  0  0  0  0  0  0  0  0
   -2.9520   -4.6564    0.0000 C   0  0  0  0  0  0  0  0  0  0  0  0
  1  2  2  0
  2  3  1  0
  3  4  1  0
  4  5  2  0
  5  6  1  0
  6  7  1  0
  6  8  2  0
  8  9  1  0
  9 10  2  0
 10 11  1  0
 11 12  1  0
 12 13  1  0
 13 14  1  0
 14 15  1  0
 15 16  1  0
 16 17  1  0
 17 18  1  0
 18 19  1  0
 19 20  1  0
 20 21  2  0
 21 22  1  0
 22 23  1  0
 23 24  2  0
 24 25  1  0
 25 26  2  0
 26 27  1  0
 27 28  2  0
 15 29  1  0
 29 30  1  0
 11  2  1  0
 30 12  1  0
 10  4  1  0
 28 20  1  0
 28 23  1  0
M  END
>  <assay_chembl_id>  (545) 
CHEMBL3820063

>  <assay_description>  (545) 
Displacement of [3H]LSD from human recombinant 5HT2B receptor incubated for 1.5 hrs by microbeta scintillation counting method

>  <parent_molecule_chembl_id>  (545) 
CHEMBL3818805

>  <canonical_smiles>  (545) 
O=c1[nH]c2cc(Cl)ccc2n1C1CCN(CCCCc2c[nH]c3ccccc23)CC1

>  <standard_type>  (545) 
Ki

>  <standard_relation>  (545) 
=

>  <standard_value>  (545) 
51.0

>  <standard_units>  (545) 
nM

>  <target_pref_name>  (545) 
Serotonin 2b (5-HT2b) receptor

>  <target_chembl_id>  (545) 
CHEMBL1833

>  <target_organism>  (545) 
Homo sapiens

>  <pchembl_median>  (545) 
7.33

$$$$
CHEMBL3819434
     RDKit          2D

 30 33  0  0  0  0  0  0  0  0999 V2000
    2.5000    0.0000    0.0000 Cl  0  0  0  0  0  0  0  0  0  0  0  0
   -3.6478   -7.0899    0.0000 O   0  0  0  0  0  0  0  0  0  0  0  0
   -2.6836   -8.2390    0.0000 C   0  0  0  0  0  0  0  0  0  0  0  0
   -1.7194   -7.0899    0.0000 C   0  0  0  0  0  0  0  0  0  0  0  0
   -0.2422   -7.3504    0.0000 C   0  0  0  0  0  0  0  0  0  0  0  0
    0.7220   -6.2013    0.0000 C   0  0  0  0  0  0  0  0  0  0  0  0
    0.2090   -4.7918    0.0000 C   0  0  0  0  0  0  0  0  0  0  0  0
    1.1731   -3.6427    0.0000 Cl  0  0  0  0  0  0  0  0  0  0  0  0
   -1.2683   -4.5313    0.0000 C   0  0  0  0  0  0  0  0  0  0  0  0
   -2.2324   -5.6804    0.0000 C   0  0  0  0  0  0  0  0  0  0  0  0
   -1.3846   -8.9890    0.0000 C   0  0  0  0  0  0  0  0  0  0  0  0
   -1.3846  -10.4890    0.0000 C   0  0  0  0  0  0  0  0  0  0  0  0
   -1.8481  -11.9156    0.0000 C   0  0  0  0  0  0  0  0  0  0  0  0
   -3.3481  -11.9156    0.0000 C   0  0  0  0  0  0  0  0  0  0  0  0
   -3.8116  -10.4890    0.0000 C   0  0  0  0  0  0  0  0  0  0  0  0
   -3.9826   -8.9890    0.0000 C   0  0  0  0  0  0  0  0  0  0  0  0
   -2.5981   -9.6073    0.0000 N   0  0  0  0  0  0  0  0  0  0  0  0
   -2.5981   -8.1073    0.0000 C   0  0  0  0  0  0  0  0  0  0  0  0
   -1.2990   -7.3573    0.0000 C   0  0  0  0  0  0  0  0  0  0  0  0
   -1.2990   -5.8573    0.0000 C   0  0  0  0  0  0  0  0  0  0  0  0
   -0.0000   -5.1073    0.0000 C   0  0  0  0  0  0  0  0  0  0  0  0
   -0.0000   -3.6073    0.0000 C   0  0  0  0  0  0  0  0  0  0  0  0
    1.2135   -2.7256    0.0000 N   0  0  0  0  0  0  0  0  0  0  0  0
    0.7500   -1.2990    0.0000 C   0  0  0  0  0  0  0  0  0  0  0  0
    1.5000    0.0000    0.0000 C   0  0  0  0  0  0  0  0  0  0  0  0
    0.7500    1.2990    0.0000 C   0  0  0  0  0  0  0  0  0  0  0  0
   -0.7500    1.2990    0.0000 C   0  0  0  0  0  0  0  0  0  0  0  0
   -1.5000    0.0000    0.0000 C   0  0  0  0  0  0  0  0  0  0  0  0
   -0.7500   -1.2990    0.0000 C   0  0  0  0  0  0  0  0  0  0  0  0
   -1.2135   -2.7256    0.0000 S   0  0  0  0  0  0  0  0  0  0  0  0
  2  3  1  0
  3  4  1  0
  4  5  2  0
  5  6  1  0
  6  7  2  0
  7  8  1  0
  7  9  1  0
  9 10  2  0
  3 11  1  0
 11 12  1  0
 12 13  1  0
 13 14  1  0
 14 15  1  0
 15 16  1  0
 15 17  1  0
 17 18  1  0
 18 19  1  0
 19 20  1  0
 20 21  1  0
 21 22  1  0
 22 23  2  0
 23 24  1  0
 24 25  2  0
 25 26  1  0
 26 27  2  0
 27 28  1  0
 28 29  2  0
 29 30  1  0
 16  3  1  0
 30 22  1  0
 10  4  1  0
 17 12  1  0
 29 24  1  0
M  END
>  <assay_chembl_id>  (546) 
CHEMBL3820063

>  <assay_description>  (546) 
Displacement of [3H]LSD from human recombinant 5HT2B receptor incubated for 1.5 hrs by microbeta scintillation counting method

>  <parent_molecule_chembl_id>  (546) 
CHEMBL3819713

>  <canonical_smiles>  (546) 
Cl.OC1(c2ccc(Cl)cc2)CC2CCC(C1)N2CCCCc1nc2ccccc2s1

>  <standard_type>  (546) 
Ki

>  <standard_relation>  (546) 
=

>  <standard_value>  (546) 
342.0

>  <standard_units>  (546) 
nM

>  <target_pref_name>  (546) 
Serotonin 2b (5-HT2b) receptor

>  <target_chembl_id>  (546) 
CHEMBL1833

>  <target_organism>  (546) 
Homo sapiens

>  <pchembl_median>  (546) 
7.6

$$$$
CHEMBL3818881
     RDKit          2D

 32 35  0  0  0  0  0  0  0  0999 V2000
    2.5000    0.0000    0.0000 Cl  0  0  0  0  0  0  0  0  0  0  0  0
    1.2990   -5.8573    0.0000 O   0  0  0  0  0  0  0  0  0  0  0  0
   -0.0000   -5.1073    0.0000 C   0  0  0  0  0  0  0  0  0  0  0  0
   -1.2990   -5.8573    0.0000 C   0  0  0  0  0  0  0  0  0  0  0  0
   -1.2990   -7.3573    0.0000 C   0  0  0  0  0  0  0  0  0  0  0  0
   -2.5981   -8.1073    0.0000 C   0  0  0  0  0  0  0  0  0  0  0  0
   -2.5981   -9.6073    0.0000 C   0  0  0  0  0  0  0  0  0  0  0  0
   -3.8971  -10.3573    0.0000 N   0  0  0  0  0  0  0  0  0  0  0  0
   -5.2674   -9.7472    0.0000 C   0  0  0  0  0  0  0  0  0  0  0  0
   -6.2711  -10.8619    0.0000 C   0  0  0  0  0  0  0  0  0  0  0  0
   -5.5211  -12.1610    0.0000 C   0  0  0  0  0  0  0  0  0  0  0  0
   -4.0539  -11.8491    0.0000 C   0  0  0  0  0  0  0  0  0  0  0  0
   -2.6694  -11.2472    0.0000 C   0  0  0  0  0  0  0  0  0  0  0  0
   -2.6694   -9.7472    0.0000 C   0  0  0  0  0  0  0  0  0  0  0  0
   -1.1921  -10.0077    0.0000 O   0  0  0  0  0  0  0  0  0  0  0  0
   -2.1563   -8.3377    0.0000 C   0  0  0  0  0  0  0  0  0  0  0  0
   -0.6791   -8.0772    0.0000 C   0  0  0  0  0  0  0  0  0  0  0  0
   -0.1661   -6.6676    0.0000 C   0  0  0  0  0  0  0  0  0  0  0  0
   -1.1303   -5.5186    0.0000 C   0  0  0  0  0  0  0  0  0  0  0  0
   -0.9736   -4.0268    0.0000 Cl  0  0  0  0  0  0  0  0  0  0  0  0
   -2.6075   -5.7791    0.0000 C   0  0  0  0  0  0  0  0  0  0  0  0
   -3.1205   -7.1886    0.0000 C   0  0  0  0  0  0  0  0  0  0  0  0
   -3.9684   -8.9972    0.0000 C   0  0  0  0  0  0  0  0  0  0  0  0
   -0.0000   -3.6073    0.0000 C   0  0  0  0  0  0  0  0  0  0  0  0
    1.2135   -2.7256    0.0000 N   0  0  0  0  0  0  0  0  0  0  0  0
    0.7500   -1.2990    0.0000 C   0  0  0  0  0  0  0  0  0  0  0  0
    1.5000    0.0000    0.0000 C   0  0  0  0  0  0  0  0  0  0  0  0
    0.7500    1.2990    0.0000 C   0  0  0  0  0  0  0  0  0  0  0  0
   -0.7500    1.2990    0.0000 C   0  0  0  0  0  0  0  0  0  0  0  0
   -1.5000    0.0000    0.0000 C   0  0  0  0  0  0  0  0  0  0  0  0
   -0.7500   -1.2990    0.0000 C   0  0  0  0  0  0  0  0  0  0  0  0
   -1.2135   -2.7256    0.0000 S   0  0  0  0  0  0  0  0  0  0  0  0
  2  3  2  0
  3  4  1  0
  4  5  1  0
  5  6  1  0
  6  7  1  0
  7  8  1  0
  8  9  1  0
  9 10  1  0
 10 11  1  0
 11 12  1  0
 12 13  1  0
 13 14  1  0
 14 15  1  0
 14 16  1  0
 16 17  2  0
 17 18  1  0
 18 19  2  0
 19 20  1  0
 19 21  1  0
 21 22  2  0
 14 23  1  0
  3 24  1  0
 24 25  2  0
 25 26  1  0
 26 27  2  0
 27 28  1  0
 28 29  2  0
 29 30  1  0
 30 31  2  0
 31 32  1  0
 12  8  1  0
 22 16  1  0
 32 24  1  0
 23  9  1  0
 31 26  1  0
M  END
>  <assay_chembl_id>  (547) 
CHEMBL3820063

>  <assay_description>  (547) 
Displacement of [3H]LSD from human recombinant 5HT2B receptor incubated for 1.5 hrs by microbeta scintillation counting method

>  <parent_molecule_chembl_id>  (547) 
CHEMBL3819714

>  <canonical_smiles>  (547) 
Cl.O=C(CCCCN1C2CCC1CC(O)(c1ccc(Cl)cc1)C2)c1nc2ccccc2s1

>  <standard_type>  (547) 
Ki

>  <standard_relation>  (547) 
=

>  <standard_value>  (547) 
758.0

>  <standard_units>  (547) 
nM

>  <target_pref_name>  (547) 
Serotonin 2b (5-HT2b) receptor

>  <target_chembl_id>  (547) 
CHEMBL1833

>  <target_organism>  (547) 
Homo sapiens

>  <pchembl_median>  (547) 
7.4

$$$$
CHEMBL3890153
     RDKit          2D

 23 25  0  0  0  0  0  0  0  0999 V2000
    0.0000    9.5211    0.0000 Br  0  0  0  0  0  0  0  0  0  0  0  0
    1.5000    0.0000    0.0000 C   0  0  0  0  0  0  0  0  0  0  0  0
    0.7500   -1.2990    0.0000 C   0  0  0  0  0  0  0  0  0  0  0  0
   -0.7500   -1.2990    0.0000 C   0  0  0  0  0  0  0  0  0  0  0  0
   -1.5000    0.0000    0.0000 C   0  0  0  0  0  0  0  0  0  0  0  0
   -0.7500    1.2990    0.0000 C   0  0  0  0  0  0  0  0  0  0  0  0
    0.7500    1.2990    0.0000 C   0  0  0  0  0  0  0  0  0  0  0  0
   -1.5000    2.5981    0.0000 C   0  0  0  0  0  0  0  0  0  0  0  0
   -3.0000    2.5981    0.0000 C   0  0  0  0  0  0  0  0  0  0  0  0
   -3.7500    1.2990    0.0000 N   0  0  0  0  0  0  0  0  0  0  0  0
   -5.2500    1.2990    0.0000 C   0  0  0  0  0  0  0  0  0  0  0  0
   -6.0000    2.5981    0.0000 C   0  0  0  0  0  0  0  0  0  0  0  0
   -7.5000    2.5981    0.0000 C   0  0  0  0  0  0  0  0  0  0  0  0
   -8.2500    3.8971    0.0000 C   0  0  0  0  0  0  0  0  0  0  0  0
   -7.6399    5.2674    0.0000 N   0  0  0  0  0  0  0  0  0  0  0  0
   -8.7546    6.2711    0.0000 C   0  0  0  0  0  0  0  0  0  0  0  0
   -8.7546    7.7711    0.0000 C   0  0  0  0  0  0  0  0  0  0  0  0
  -10.0537    8.5211    0.0000 C   0  0  0  0  0  0  0  0  0  0  0  0
  -11.3527    7.7711    0.0000 C   0  0  0  0  0  0  0  0  0  0  0  0
  -11.3527    6.2711    0.0000 C   0  0  0  0  0  0  0  0  0  0  0  0
  -10.0537    5.5211    0.0000 C   0  0  0  0  0  0  0  0  0  0  0  0
   -9.7418    4.0539    0.0000 S   0  0  0  0  0  0  0  0  0  0  0  0
   -3.0000    0.0000    0.0000 C   0  0  0  0  0  0  0  0  0  0  0  0
  2  3  2  0
  3  4  1  0
  4  5  2  0
  5  6  1  0
  6  7  2  0
  6  8  1  0
  8  9  1  0
  9 10  1  0
 10 11  1  0
 11 12  1  0
 12 13  1  0
 13 14  1  0
 14 15  2  0
 15 16  1  0
 16 17  2  0
 17 18  1  0
 18 19  2  0
 19 20  1  0
 20 21  2  0
 21 22  1  0
 10 23  1  0
  7  2  1  0
 22 14  1  0
 23  5  1  0
 21 16  1  0
M  END
>  <assay_chembl_id>  (548) 
CHEMBL3863662

>  <assay_description>  (548) 
Displacement of [3H]-LSD from human 5-HT2B receptor by liquid scintillation counting method

>  <parent_molecule_chembl_id>  (548) 
CHEMBL3991291

>  <canonical_smiles>  (548) 
Br.c1ccc2c(c1)CCN(CCCc1nc3ccccc3s1)C2

>  <standard_type>  (548) 
Ki

>  <standard_relation>  (548) 
=

>  <standard_value>  (548) 
18.0

>  <standard_units>  (548) 
nM

>  <target_pref_name>  (548) 
Serotonin 2b (5-HT2b) receptor

>  <target_chembl_id>  (548) 
CHEMBL1833

>  <target_organism>  (548) 
Homo sapiens

>  <pchembl_median>  (548) 
5.92

$$$$
CHEMBL3899099
     RDKit          2D

 25 27  0  0  0  0  0  0  0  0999 V2000
   10.1027    0.0000    0.0000 Cl  0  0  0  0  0  0  0  0  0  0  0  0
    3.0000    0.0000    0.0000 Cl  0  0  0  0  0  0  0  0  0  0  0  0
    1.5000    0.0000    0.0000 C   0  0  0  0  0  0  0  0  0  0  0  0
    0.7500   -1.2990    0.0000 C   0  0  0  0  0  0  0  0  0  0  0  0
   -0.7500   -1.2990    0.0000 C   0  0  0  0  0  0  0  0  0  0  0  0
   -1.5000    0.0000    0.0000 C   0  0  0  0  0  0  0  0  0  0  0  0
   -0.7500    1.2990    0.0000 C   0  0  0  0  0  0  0  0  0  0  0  0
    0.7500    1.2990    0.0000 C   0  0  0  0  0  0  0  0  0  0  0  0
    1.5000    2.5981    0.0000 C   0  0  0  0  0  0  0  0  0  0  0  0
    0.7500    3.8971    0.0000 N   0  0  0  0  0  0  0  0  0  0  0  0
    1.5000    5.1962    0.0000 C   0  0  0  0  0  0  0  0  0  0  0  0
    3.0000    5.1962    0.0000 C   0  0  0  0  0  0  0  0  0  0  0  0
    3.7500    6.4952    0.0000 C   0  0  0  0  0  0  0  0  0  0  0  0
    5.2500    6.4952    0.0000 C   0  0  0  0  0  0  0  0  0  0  0  0
    6.0000    7.7942    0.0000 C   0  0  0  0  0  0  0  0  0  0  0  0
    7.4918    7.9510    0.0000 N   0  0  0  0  0  0  0  0  0  0  0  0
    7.8037    9.4182    0.0000 C   0  0  0  0  0  0  0  0  0  0  0  0
    9.1027   10.1682    0.0000 C   0  0  0  0  0  0  0  0  0  0  0  0
    9.1027   11.6682    0.0000 C   0  0  0  0  0  0  0  0  0  0  0  0
    7.8037   12.4182    0.0000 C   0  0  0  0  0  0  0  0  0  0  0  0
    6.5046   11.6682    0.0000 C   0  0  0  0  0  0  0  0  0  0  0  0
    6.5046   10.1682    0.0000 C   0  0  0  0  0  0  0  0  0  0  0  0
    5.3899    9.1645    0.0000 S   0  0  0  0  0  0  0  0  0  0  0  0
   -0.7500    3.8971    0.0000 C   0  0  0  0  0  0  0  0  0  0  0  0
   -1.5000    2.5981    0.0000 C   0  0  0  0  0  0  0  0  0  0  0  0
  2  3  1  0
  3  4  2  0
  4  5  1  0
  5  6  2  0
  6  7  1  0
  7  8  2  0
  8  9  1  0
  9 10  1  0
 10 11  1  0
 11 12  1  0
 12 13  1  0
 13 14  1  0
 14 15  1  0
 15 16  2  0
 16 17  1  0
 17 18  2  0
 18 19  1  0
 19 20  2  0
 20 21  1  0
 21 22  2  0
 22 23  1  0
 10 24  1  0
 24 25  1  0
  8  3  1  0
 23 15  1  0
 25  7  1  0
 22 17  1  0
M  END
>  <assay_chembl_id>  (549) 
CHEMBL3863662

>  <assay_description>  (549) 
Displacement of [3H]-LSD from human 5-HT2B receptor by liquid scintillation counting method

>  <parent_molecule_chembl_id>  (549) 
CHEMBL3990801

>  <canonical_smiles>  (549) 
Cl.Clc1cccc2c1CN(CCCCc1nc3ccccc3s1)CC2

>  <standard_type>  (549) 
Ki

>  <standard_relation>  (549) 
=

>  <standard_value>  (549) 
239.0

>  <standard_units>  (549) 
nM

>  <target_pref_name>  (549) 
Serotonin 2b (5-HT2b) receptor

>  <target_chembl_id>  (549) 
CHEMBL1833

>  <target_organism>  (549) 
Homo sapiens

>  <pchembl_median>  (549) 
6.82

$$$$
CHEMBL3970299
     RDKit          2D

 25 27  0  0  0  0  0  0  0  0999 V2000
    2.5000    0.0000    0.0000 Cl  0  0  0  0  0  0  0  0  0  0  0  0
   -7.8037  -13.9182    0.0000 Cl  0  0  0  0  0  0  0  0  0  0  0  0
   -7.8037  -12.4182    0.0000 C   0  0  0  0  0  0  0  0  0  0  0  0
   -9.1027  -11.6682    0.0000 C   0  0  0  0  0  0  0  0  0  0  0  0
   -9.1027  -10.1682    0.0000 C   0  0  0  0  0  0  0  0  0  0  0  0
   -7.8037   -9.4182    0.0000 C   0  0  0  0  0  0  0  0  0  0  0  0
   -7.4918   -7.9510    0.0000 S   0  0  0  0  0  0  0  0  0  0  0  0
   -6.0000   -7.7942    0.0000 C   0  0  0  0  0  0  0  0  0  0  0  0
   -5.2500   -6.4952    0.0000 C   0  0  0  0  0  0  0  0  0  0  0  0
   -3.7500   -6.4952    0.0000 C   0  0  0  0  0  0  0  0  0  0  0  0
   -3.0000   -5.1962    0.0000 C   0  0  0  0  0  0  0  0  0  0  0  0
   -1.5000   -5.1962    0.0000 C   0  0  0  0  0  0  0  0  0  0  0  0
   -0.7500   -3.8971    0.0000 N   0  0  0  0  0  0  0  0  0  0  0  0
    0.7500   -3.8971    0.0000 C   0  0  0  0  0  0  0  0  0  0  0  0
    1.5000   -2.5981    0.0000 C   0  0  0  0  0  0  0  0  0  0  0  0
    0.7500   -1.2990    0.0000 C   0  0  0  0  0  0  0  0  0  0  0  0
    1.5000    0.0000    0.0000 C   0  0  0  0  0  0  0  0  0  0  0  0
    0.7500    1.2990    0.0000 C   0  0  0  0  0  0  0  0  0  0  0  0
   -0.7500    1.2990    0.0000 C   0  0  0  0  0  0  0  0  0  0  0  0
   -1.5000    0.0000    0.0000 C   0  0  0  0  0  0  0  0  0  0  0  0
   -0.7500   -1.2990    0.0000 C   0  0  0  0  0  0  0  0  0  0  0  0
   -1.5000   -2.5981    0.0000 C   0  0  0  0  0  0  0  0  0  0  0  0
   -5.3899   -9.1645    0.0000 N   0  0  0  0  0  0  0  0  0  0  0  0
   -6.5046  -10.1682    0.0000 C   0  0  0  0  0  0  0  0  0  0  0  0
   -6.5046  -11.6682    0.0000 C   0  0  0  0  0  0  0  0  0  0  0  0
  2  3  1  0
  3  4  2  0
  4  5  1  0
  5  6  2  0
  6  7  1  0
  7  8  1  0
  8  9  1  0
  9 10  1  0
 10 11  1  0
 11 12  1  0
 12 13  1  0
 13 14  1  0
 14 15  1  0
 15 16  1  0
 16 17  2  0
 17 18  1  0
 18 19  2  0
 19 20  1  0
 20 21  2  0
 21 22  1  0
  8 23  2  0
 23 24  1  0
 24 25  2  0
 25  3  1  0
 24  6  1  0
 22 13  1  0
 21 16  1  0
M  END
>  <assay_chembl_id>  (550) 
CHEMBL3863662

>  <assay_description>  (550) 
Displacement of [3H]-LSD from human 5-HT2B receptor by liquid scintillation counting method

>  <parent_molecule_chembl_id>  (550) 
CHEMBL3990113

>  <canonical_smiles>  (550) 
Cl.Clc1ccc2sc(CCCCN3CCc4ccccc4C3)nc2c1

>  <standard_type>  (550) 
Ki

>  <standard_relation>  (550) 
=

>  <standard_value>  (550) 
16.0

>  <standard_units>  (550) 
nM

>  <target_pref_name>  (550) 
Serotonin 2b (5-HT2b) receptor

>  <target_chembl_id>  (550) 
CHEMBL1833

>  <target_organism>  (550) 
Homo sapiens

>  <pchembl_median>  (550) 
5.82

$$$$
CHEMBL3971383
     RDKit          2D

 26 28  0  0  0  0  0  0  0  0999 V2000
    6.9017    0.0000    0.0000 Cl  0  0  0  0  0  0  0  0  0  0  0  0
    5.9017  -12.4182    0.0000 Cl  0  0  0  0  0  0  0  0  0  0  0  0
    4.6027  -11.6682    0.0000 C   0  0  0  0  0  0  0  0  0  0  0  0
    3.3037  -12.4182    0.0000 C   0  0  0  0  0  0  0  0  0  0  0  0
    2.0046  -11.6682    0.0000 C   0  0  0  0  0  0  0  0  0  0  0  0
    2.0046  -10.1682    0.0000 C   0  0  0  0  0  0  0  0  0  0  0  0
    0.8899   -9.1645    0.0000 S   0  0  0  0  0  0  0  0  0  0  0  0
    1.5000   -7.7942    0.0000 C   0  0  0  0  0  0  0  0  0  0  0  0
    0.7500   -6.4952    0.0000 C   0  0  0  0  0  0  0  0  0  0  0  0
    1.5000   -5.1962    0.0000 C   0  0  0  0  0  0  0  0  0  0  0  0
    0.7500   -3.8971    0.0000 C   0  0  0  0  0  0  0  0  0  0  0  0
    1.5000   -2.5981    0.0000 C   0  0  0  0  0  0  0  0  0  0  0  0
    0.7500   -1.2990    0.0000 N   0  0  0  0  0  0  0  0  0  0  0  0
    1.5000    0.0000    0.0000 C   0  0  0  0  0  0  0  0  0  0  0  0
    0.7500    1.2990    0.0000 C   0  0  0  0  0  0  0  0  0  0  0  0
   -0.7500    1.2990    0.0000 C   0  0  0  0  0  0  0  0  0  0  0  0
   -1.5000    2.5981    0.0000 C   0  0  0  0  0  0  0  0  0  0  0  0
   -0.7500    3.8971    0.0000 Cl  0  0  0  0  0  0  0  0  0  0  0  0
   -3.0000    2.5981    0.0000 C   0  0  0  0  0  0  0  0  0  0  0  0
   -3.7500    1.2990    0.0000 C   0  0  0  0  0  0  0  0  0  0  0  0
   -3.0000    0.0000    0.0000 C   0  0  0  0  0  0  0  0  0  0  0  0
   -1.5000    0.0000    0.0000 C   0  0  0  0  0  0  0  0  0  0  0  0
   -0.7500   -1.2990    0.0000 C   0  0  0  0  0  0  0  0  0  0  0  0
    2.9918   -7.9510    0.0000 N   0  0  0  0  0  0  0  0  0  0  0  0
    3.3037   -9.4182    0.0000 C   0  0  0  0  0  0  0  0  0  0  0  0
    4.6027  -10.1682    0.0000 C   0  0  0  0  0  0  0  0  0  0  0  0
  2  3  1  0
  3  4  2  0
  4  5  1  0
  5  6  2  0
  6  7  1  0
  7  8  1  0
  8  9  1  0
  9 10  1  0
 10 11  1  0
 11 12  1  0
 12 13  1  0
 13 14  1  0
 14 15  1  0
 15 16  1  0
 16 17  2  0
 17 18  1  0
 17 19  1  0
 19 20  2  0
 20 21  1  0
 21 22  2  0
 22 23  1  0
  8 24  2  0
 24 25  1  0
 25 26  2  0
 26  3  1  0
 25  6  1  0
 23 13  1  0
 22 16  1  0
M  END
>  <assay_chembl_id>  (551) 
CHEMBL3863662

>  <assay_description>  (551) 
Displacement of [3H]-LSD from human 5-HT2B receptor by liquid scintillation counting method

>  <parent_molecule_chembl_id>  (551) 
CHEMBL3990611

>  <canonical_smiles>  (551) 
Cl.Clc1ccc2sc(CCCCN3CCc4c(Cl)cccc4C3)nc2c1

>  <standard_type>  (551) 
Ki

>  <standard_relation>  (551) 
=

>  <standard_value>  (551) 
327.0

>  <standard_units>  (551) 
nM

>  <target_pref_name>  (551) 
Serotonin 2b (5-HT2b) receptor

>  <target_chembl_id>  (551) 
CHEMBL1833

>  <target_organism>  (551) 
Homo sapiens

>  <pchembl_median>  (551) 
6.0

$$$$
CHEMBL3941795
     RDKit          2D

 25 27  0  0  0  0  0  0  0  0999 V2000
    2.5000    0.0000    0.0000 Cl  0  0  0  0  0  0  0  0  0  0  0  0
   -7.8037  -13.9182    0.0000 Cl  0  0  0  0  0  0  0  0  0  0  0  0
   -7.8037  -12.4182    0.0000 C   0  0  0  0  0  0  0  0  0  0  0  0
   -9.1027  -11.6682    0.0000 C   0  0  0  0  0  0  0  0  0  0  0  0
   -9.1027  -10.1682    0.0000 C   0  0  0  0  0  0  0  0  0  0  0  0
   -7.8037   -9.4182    0.0000 C   0  0  0  0  0  0  0  0  0  0  0  0
   -7.4918   -7.9510    0.0000 S   0  0  0  0  0  0  0  0  0  0  0  0
   -6.0000   -7.7942    0.0000 C   0  0  0  0  0  0  0  0  0  0  0  0
   -5.2500   -6.4952    0.0000 C   0  0  0  0  0  0  0  0  0  0  0  0
   -3.7500   -6.4952    0.0000 C   0  0  0  0  0  0  0  0  0  0  0  0
   -3.0000   -5.1962    0.0000 C   0  0  0  0  0  0  0  0  0  0  0  0
   -1.5000   -5.1962    0.0000 C   0  0  0  0  0  0  0  0  0  0  0  0
   -0.7500   -3.8971    0.0000 N   0  0  0  0  0  0  0  0  0  0  0  0
    0.7500   -3.8971    0.0000 C   0  0  0  0  0  0  0  0  0  0  0  0
    1.5000   -2.5981    0.0000 C   0  0  0  0  0  0  0  0  0  0  0  0
    0.7500   -1.2990    0.0000 C   0  0  0  0  0  0  0  0  0  0  0  0
    1.5000    0.0000    0.0000 C   0  0  0  0  0  0  0  0  0  0  0  0
    0.7500    1.2990    0.0000 C   0  0  0  0  0  0  0  0  0  0  0  0
   -0.7500    1.2990    0.0000 C   0  0  0  0  0  0  0  0  0  0  0  0
   -1.5000    0.0000    0.0000 C   0  0  0  0  0  0  0  0  0  0  0  0
   -0.7500   -1.2990    0.0000 C   0  0  0  0  0  0  0  0  0  0  0  0
   -1.5000   -2.5981    0.0000 C   0  0  0  0  0  0  0  0  0  0  0  0
   -5.3899   -9.1645    0.0000 N   0  0  0  0  0  0  0  0  0  0  0  0
   -6.5046  -10.1682    0.0000 C   0  0  0  0  0  0  0  0  0  0  0  0
   -6.5046  -11.6682    0.0000 C   0  0  0  0  0  0  0  0  0  0  0  0
  2  3  1  0
  3  4  2  0
  4  5  1  0
  5  6  2  0
  6  7  1  0
  7  8  1  0
  8  9  1  0
  9 10  1  0
 10 11  1  0
 11 12  1  0
 12 13  1  0
 13 14  1  0
 14 15  1  0
 15 16  1  0
 16 17  1  0
 17 18  1  0
 18 19  1  0
 19 20  1  0
 20 21  1  0
 21 22  1  0
  8 23  2  0
 23 24  1  0
 24 25  2  0
 25  3  1  0
 24  6  1  0
 22 13  1  0
 21 16  1  0
M  END
>  <assay_chembl_id>  (552) 
CHEMBL3863662

>  <assay_description>  (552) 
Displacement of [3H]-LSD from human 5-HT2B receptor by liquid scintillation counting method

>  <parent_molecule_chembl_id>  (552) 
CHEMBL3991399

>  <canonical_smiles>  (552) 
Cl.Clc1ccc2sc(CCCCN3CCC4CCCCC4C3)nc2c1

>  <standard_type>  (552) 
Ki

>  <standard_relation>  (552) 
=

>  <standard_value>  (552) 
64.0

>  <standard_units>  (552) 
nM

>  <target_pref_name>  (552) 
Serotonin 2b (5-HT2b) receptor

>  <target_chembl_id>  (552) 
CHEMBL1833

>  <target_organism>  (552) 
Homo sapiens

>  <pchembl_median>  (552) 
5.56

$$$$
CHEMBL3959919
     RDKit          2D

 29 31  0  0  0  0  0  0  0  0999 V2000
   -3.0000   -5.1962    0.0000 C   0  0  0  0  0  0  0  0  0  0  0  0
   -1.5000   -5.1962    0.0000 O   0  0  0  0  0  0  0  0  0  0  0  0
   -0.7500   -3.8971    0.0000 C   0  0  0  0  0  0  0  0  0  0  0  0
   -1.5000   -2.5981    0.0000 C   0  0  0  0  0  0  0  0  0  0  0  0
   -0.7500   -1.2990    0.0000 C   0  0  0  0  0  0  0  0  0  0  0  0
    0.7500   -1.2990    0.0000 C   0  0  0  0  0  0  0  0  0  0  0  0
    1.5000   -2.5981    0.0000 C   0  0  0  0  0  0  0  0  0  0  0  0
    0.7500   -3.8971    0.0000 C   0  0  0  0  0  0  0  0  0  0  0  0
    1.5000   -5.1962    0.0000 O   0  0  0  0  0  0  0  0  0  0  0  0
    3.0000   -5.1962    0.0000 C   0  0  0  0  0  0  0  0  0  0  0  0
    1.5000    0.0000    0.0000 C   0  0  0  0  0  0  0  0  0  0  0  0
    0.7500    1.2990    0.0000 N   0  0  0  0  0  0  0  0  0  0  0  0
    1.5000    2.5981    0.0000 C   0  0  0  0  0  0  0  0  0  0  0  0
    3.0000    2.5981    0.0000 C   0  0  0  0  0  0  0  0  0  0  0  0
    3.7500    3.8971    0.0000 C   0  0  0  0  0  0  0  0  0  0  0  0
    5.2500    3.8971    0.0000 C   0  0  0  0  0  0  0  0  0  0  0  0
    6.0000    5.1962    0.0000 C   0  0  0  0  0  0  0  0  0  0  0  0
    7.4918    5.3529    0.0000 N   0  0  0  0  0  0  0  0  0  0  0  0
    7.8037    6.8202    0.0000 C   0  0  0  0  0  0  0  0  0  0  0  0
    9.1027    7.5702    0.0000 C   0  0  0  0  0  0  0  0  0  0  0  0
    9.1027    9.0702    0.0000 C   0  0  0  0  0  0  0  0  0  0  0  0
   10.4017    9.8202    0.0000 Cl  0  0  0  0  0  0  0  0  0  0  0  0
    7.8037    9.8202    0.0000 C   0  0  0  0  0  0  0  0  0  0  0  0
    6.5046    9.0702    0.0000 C   0  0  0  0  0  0  0  0  0  0  0  0
    6.5046    7.5702    0.0000 C   0  0  0  0  0  0  0  0  0  0  0  0
    5.3899    6.5665    0.0000 S   0  0  0  0  0  0  0  0  0  0  0  0
   -0.7500    1.2990    0.0000 C   0  0  0  0  0  0  0  0  0  0  0  0
   -1.5000    0.0000    0.0000 C   0  0  0  0  0  0  0  0  0  0  0  0
   11.4017    0.0000    0.0000 Cl  0  0  0  0  0  0  0  0  0  0  0  0
  1  2  1  0
  2  3  1  0
  3  4  2  0
  4  5  1  0
  5  6  2  0
  6  7  1  0
  7  8  2  0
  8  9  1  0
  9 10  1  0
  6 11  1  0
 11 12  1  0
 12 13  1  0
 13 14  1  0
 14 15  1  0
 15 16  1  0
 16 17  1  0
 17 18  2  0
 18 19  1  0
 19 20  2  0
 20 21  1  0
 21 22  1  0
 21 23  2  0
 23 24  1  0
 24 25  2  0
 25 26  1  0
 12 27  1  0
 27 28  1  0
  8  3  1  0
 26 17  1  0
 28  5  1  0
 25 19  1  0
M  END
>  <assay_chembl_id>  (553) 
CHEMBL3863662

>  <assay_description>  (553) 
Displacement of [3H]-LSD from human 5-HT2B receptor by liquid scintillation counting method

>  <parent_molecule_chembl_id>  (553) 
CHEMBL3991166

>  <canonical_smiles>  (553) 
COc1cc2c(cc1OC)CN(CCCCc1nc3cc(Cl)ccc3s1)CC2.Cl

>  <standard_type>  (553) 
Ki

>  <standard_relation>  (553) 
=

>  <standard_value>  (553) 
7.0

>  <standard_units>  (553) 
nM

>  <target_pref_name>  (553) 
Serotonin 2b (5-HT2b) receptor

>  <target_chembl_id>  (553) 
CHEMBL1833

>  <target_organism>  (553) 
Homo sapiens

>  <pchembl_median>  (553) 
6.4

$$$$
CHEMBL3890841
     RDKit          2D

 21 24  0  0  0  0  0  0  0  0999 V2000
   -3.1399   -7.8655    0.0000 C   0  0  0  0  0  0  0  0  0  0  0  0
   -3.7500   -6.4952    0.0000 C   0  0  0  0  0  0  0  0  0  0  0  0
   -3.0000   -5.1962    0.0000 C   0  0  0  0  0  0  0  0  0  0  0  0
   -1.5000   -5.1962    0.0000 C   0  0  0  0  0  0  0  0  0  0  0  0
   -0.7500   -3.8971    0.0000 N   0  0  0  0  0  0  0  0  0  0  0  0
    0.7500   -3.8971    0.0000 C   0  0  0  0  0  0  0  0  0  0  0  0
    1.5000   -2.5981    0.0000 C   0  0  0  0  0  0  0  0  0  0  0  0
    0.7500   -1.2990    0.0000 C   0  0  0  0  0  0  0  0  0  0  0  0
    1.5000    0.0000    0.0000 C   0  0  0  0  0  0  0  0  0  0  0  0
    0.7500    1.2990    0.0000 C   0  0  0  0  0  0  0  0  0  0  0  0
   -0.7500    1.2990    0.0000 C   0  0  0  0  0  0  0  0  0  0  0  0
   -1.5000    0.0000    0.0000 C   0  0  0  0  0  0  0  0  0  0  0  0
   -0.7500   -1.2990    0.0000 C   0  0  0  0  0  0  0  0  0  0  0  0
   -1.5000   -2.5981    0.0000 C   0  0  0  0  0  0  0  0  0  0  0  0
   -5.2418   -6.6520    0.0000 C   0  0  0  0  0  0  0  0  0  0  0  0
   -5.5537   -8.1192    0.0000 C   0  0  0  0  0  0  0  0  0  0  0  0
   -6.8527   -8.8692    0.0000 C   0  0  0  0  0  0  0  0  0  0  0  0
   -6.8527  -10.3692    0.0000 C   0  0  0  0  0  0  0  0  0  0  0  0
   -5.5537  -11.1192    0.0000 C   0  0  0  0  0  0  0  0  0  0  0  0
   -4.2546  -10.3692    0.0000 C   0  0  0  0  0  0  0  0  0  0  0  0
   -4.2546   -8.8692    0.0000 C   0  0  0  0  0  0  0  0  0  0  0  0
  1  2  2  0
  2  3  1  0
  3  4  1  0
  4  5  1  0
  5  6  1  0
  6  7  1  0
  7  8  1  0
  8  9  2  0
  9 10  1  0
 10 11  2  0
 11 12  1  0
 12 13  2  0
 13 14  1  0
  2 15  1  0
 15 16  1  0
 16 17  2  0
 17 18  1  0
 18 19  2  0
 19 20  1  0
 20 21  2  0
 21  1  1  0
 14  5  1  0
 21 16  1  0
 13  8  1  0
M  END
>  <assay_chembl_id>  (554) 
CHEMBL3863662

>  <assay_description>  (554) 
Displacement of [3H]-LSD from human 5-HT2B receptor by liquid scintillation counting method

>  <parent_molecule_chembl_id>  (554) 
CHEMBL3890841

>  <canonical_smiles>  (554) 
C1=C(CCN2CCc3ccccc3C2)Cc2ccccc21

>  <standard_type>  (554) 
Ki

>  <standard_relation>  (554) 
=

>  <standard_value>  (554) 
149.0

>  <standard_units>  (554) 
nM

>  <target_pref_name>  (554) 
Serotonin 2b (5-HT2b) receptor

>  <target_chembl_id>  (554) 
CHEMBL1833

>  <target_organism>  (554) 
Homo sapiens

>  <pchembl_median>  (554) 
6.21

$$$$
CHEMBL3970994
     RDKit          2D

 22 25  0  0  0  0  0  0  0  0999 V2000
   -1.5000   -2.5981    0.0000 C   0  0  0  0  0  0  0  0  0  0  0  0
   -0.7500   -3.8971    0.0000 C   0  0  0  0  0  0  0  0  0  0  0  0
   -1.5000   -5.1962    0.0000 C   0  0  0  0  0  0  0  0  0  0  0  0
   -3.0000   -5.1962    0.0000 C   0  0  0  0  0  0  0  0  0  0  0  0
   -3.7500   -6.4952    0.0000 N   0  0  0  0  0  0  0  0  0  0  0  0
   -3.0000   -7.7942    0.0000 C   0  0  0  0  0  0  0  0  0  0  0  0
   -3.7500   -9.0933    0.0000 C   0  0  0  0  0  0  0  0  0  0  0  0
   -5.2500   -9.0933    0.0000 C   0  0  0  0  0  0  0  0  0  0  0  0
   -6.0000  -10.3923    0.0000 C   0  0  0  0  0  0  0  0  0  0  0  0
   -7.5000  -10.3923    0.0000 C   0  0  0  0  0  0  0  0  0  0  0  0
   -8.2500   -9.0933    0.0000 C   0  0  0  0  0  0  0  0  0  0  0  0
   -7.5000   -7.7942    0.0000 C   0  0  0  0  0  0  0  0  0  0  0  0
   -6.0000   -7.7942    0.0000 C   0  0  0  0  0  0  0  0  0  0  0  0
   -5.2500   -6.4952    0.0000 C   0  0  0  0  0  0  0  0  0  0  0  0
    0.7500   -3.8971    0.0000 C   0  0  0  0  0  0  0  0  0  0  0  0
    1.5000   -2.5981    0.0000 C   0  0  0  0  0  0  0  0  0  0  0  0
    0.7500   -1.2990    0.0000 C   0  0  0  0  0  0  0  0  0  0  0  0
    1.5000    0.0000    0.0000 C   0  0  0  0  0  0  0  0  0  0  0  0
    0.7500    1.2990    0.0000 C   0  0  0  0  0  0  0  0  0  0  0  0
   -0.7500    1.2990    0.0000 C   0  0  0  0  0  0  0  0  0  0  0  0
   -1.5000    0.0000    0.0000 C   0  0  0  0  0  0  0  0  0  0  0  0
   -0.7500   -1.2990    0.0000 C   0  0  0  0  0  0  0  0  0  0  0  0
  1  2  2  0
  2  3  1  0
  3  4  1  0
  4  5  1  0
  5  6  1  0
  6  7  1  0
  7  8  1  0
  8  9  2  0
  9 10  1  0
 10 11  2  0
 11 12  1  0
 12 13  2  0
 13 14  1  0
  2 15  1  0
 15 16  1  0
 16 17  1  0
 17 18  2  0
 18 19  1  0
 19 20  2  0
 20 21  1  0
 21 22  2  0
 22  1  1  0
 14  5  1  0
 22 17  1  0
 13  8  1  0
M  END
>  <assay_chembl_id>  (555) 
CHEMBL3863662

>  <assay_description>  (555) 
Displacement of [3H]-LSD from human 5-HT2B receptor by liquid scintillation counting method

>  <parent_molecule_chembl_id>  (555) 
CHEMBL3970994

>  <canonical_smiles>  (555) 
C1=C(CCN2CCc3ccccc3C2)CCc2ccccc21

>  <standard_type>  (555) 
Ki

>  <standard_relation>  (555) 
=

>  <standard_value>  (555) 
126.0

>  <standard_units>  (555) 
nM

>  <target_pref_name>  (555) 
Serotonin 2b (5-HT2b) receptor

>  <target_chembl_id>  (555) 
CHEMBL1833

>  <target_organism>  (555) 
Homo sapiens

>  <pchembl_median>  (555) 
6.9

$$$$
CHEMBL3908870
     RDKit          2D

 23 25  0  0  0  0  0  0  0  0999 V2000
   -1.6339  -13.7564    0.0000 C   0  0  0  0  0  0  0  0  0  0  0  0
   -2.5981  -12.6073    0.0000 C   0  0  0  0  0  0  0  0  0  0  0  0
   -3.5623  -13.7564    0.0000 C   0  0  0  0  0  0  0  0  0  0  0  0
   -3.8971  -11.8573    0.0000 C   0  0  0  0  0  0  0  0  0  0  0  0
   -3.8971  -10.3573    0.0000 C   0  0  0  0  0  0  0  0  0  0  0  0
   -5.1962   -9.6073    0.0000 O   0  0  0  0  0  0  0  0  0  0  0  0
   -2.5981   -9.6073    0.0000 N   0  0  0  0  0  0  0  0  0  0  0  0
   -2.5981   -8.1073    0.0000 C   0  0  0  0  0  0  0  0  0  0  0  0
   -1.2990   -7.3573    0.0000 C   0  0  0  0  0  0  0  0  0  0  0  0
   -1.2990   -5.8573    0.0000 C   0  0  0  0  0  0  0  0  0  0  0  0
   -0.0000   -5.1073    0.0000 C   0  0  0  0  0  0  0  0  0  0  0  0
   -0.0000   -3.6073    0.0000 N   0  0  0  0  0  0  0  0  0  0  0  0
    1.2135   -2.7256    0.0000 C   0  0  0  0  0  0  0  0  0  0  0  0
    0.7500   -1.2990    0.0000 C   0  0  0  0  0  0  0  0  0  0  0  0
    1.5000    0.0000    0.0000 C   0  0  0  0  0  0  0  0  0  0  0  0
    0.7500    1.2990    0.0000 C   0  0  0  0  0  0  0  0  0  0  0  0
   -0.7500    1.2990    0.0000 C   0  0  0  0  0  0  0  0  0  0  0  0
   -1.5000    0.0000    0.0000 C   0  0  0  0  0  0  0  0  0  0  0  0
   -0.7500   -1.2990    0.0000 C   0  0  0  0  0  0  0  0  0  0  0  0
   -1.2135   -2.7256    0.0000 C   0  0  0  0  0  0  0  0  0  0  0  0
   -1.2990  -10.3573    0.0000 C   0  0  0  0  0  0  0  0  0  0  0  0
    0.0000   -9.6073    0.0000 O   0  0  0  0  0  0  0  0  0  0  0  0
   -1.2990  -11.8573    0.0000 C   0  0  0  0  0  0  0  0  0  0  0  0
  1  2  1  0
  2  3  1  0
  2  4  1  0
  4  5  1  0
  5  6  2  0
  5  7  1  0
  7  8  1  0
  8  9  1  0
  9 10  1  0
 10 11  1  0
 11 12  1  0
 12 13  1  0
 13 14  1  0
 14 15  2  0
 15 16  1  0
 16 17  2  0
 17 18  1  0
 18 19  2  0
 19 20  1  0
  7 21  1  0
 21 22  2  0
 21 23  1  0
 23  2  1  0
 20 12  1  0
 19 14  1  0
M  END
>  <assay_chembl_id>  (556) 
CHEMBL3863662

>  <assay_description>  (556) 
Displacement of [3H]-LSD from human 5-HT2B receptor by liquid scintillation counting method

>  <parent_molecule_chembl_id>  (556) 
CHEMBL3908870

>  <canonical_smiles>  (556) 
CC1(C)CC(=O)N(CCCCN2Cc3ccccc3C2)C(=O)C1

>  <standard_type>  (556) 
Ki

>  <standard_relation>  (556) 
=

>  <standard_value>  (556) 
531.0

>  <standard_units>  (556) 
nM

>  <target_pref_name>  (556) 
Serotonin 2b (5-HT2b) receptor

>  <target_chembl_id>  (556) 
CHEMBL1833

>  <target_organism>  (556) 
Homo sapiens

>  <pchembl_median>  (556) 
6.3

$$$$
CHEMBL3924565
     RDKit          2D

 24 25  0  0  0  0  0  0  0  0999 V2000
    0.0000    2.2990    0.0000 Cl  0  0  0  0  0  0  0  0  0  0  0  0
   -6.7131   -3.2254    0.0000 O   0  0  0  0  0  0  0  0  0  0  0  0
   -6.4896   -4.7086    0.0000 C   0  0  0  0  0  0  0  0  0  0  0  0
   -5.0933   -5.2566    0.0000 C   0  0  0  0  0  0  0  0  0  0  0  0
   -3.9205   -4.3214    0.0000 C   0  0  0  0  0  0  0  0  0  0  0  0
   -2.5242   -4.8694    0.0000 C   0  0  0  0  0  0  0  0  0  0  0  0
   -1.3515   -3.9342    0.0000 N   0  0  0  0  0  0  0  0  0  0  0  0
    0.0000   -4.5850    0.0000 C   0  0  0  0  0  0  0  0  0  0  0  0
    1.3515   -3.9342    0.0000 C   0  0  0  0  0  0  0  0  0  0  0  0
    1.6852   -2.4718    0.0000 C   0  0  0  0  0  0  0  0  0  0  0  0
    0.7500   -1.2990    0.0000 C   0  0  0  0  0  0  0  0  0  0  0  0
    1.5000    0.0000    0.0000 C   0  0  0  0  0  0  0  0  0  0  0  0
    0.7500    1.2990    0.0000 C   0  0  0  0  0  0  0  0  0  0  0  0
   -0.7500    1.2990    0.0000 C   0  0  0  0  0  0  0  0  0  0  0  0
   -1.5000    0.0000    0.0000 C   0  0  0  0  0  0  0  0  0  0  0  0
   -0.7500   -1.2990    0.0000 C   0  0  0  0  0  0  0  0  0  0  0  0
   -1.6852   -2.4718    0.0000 C   0  0  0  0  0  0  0  0  0  0  0  0
   -7.6623   -5.6439    0.0000 C   0  0  0  0  0  0  0  0  0  0  0  0
   -9.0586   -5.0958    0.0000 C   0  0  0  0  0  0  0  0  0  0  0  0
  -10.2314   -6.0311    0.0000 C   0  0  0  0  0  0  0  0  0  0  0  0
  -10.0078   -7.5143    0.0000 C   0  0  0  0  0  0  0  0  0  0  0  0
  -11.1806   -8.4496    0.0000 Cl  0  0  0  0  0  0  0  0  0  0  0  0
   -8.6115   -8.0623    0.0000 C   0  0  0  0  0  0  0  0  0  0  0  0
   -7.4388   -7.1271    0.0000 C   0  0  0  0  0  0  0  0  0  0  0  0
  2  3  2  0
  3  4  1  0
  4  5  1  0
  5  6  1  0
  6  7  1  0
  7  8  1  0
  8  9  1  0
  9 10  1  0
 10 11  1  0
 11 12  2  0
 12 13  1  0
 13 14  2  0
 14 15  1  0
 15 16  2  0
 16 17  1  0
  3 18  1  0
 18 19  2  0
 19 20  1  0
 20 21  2  0
 21 22  1  0
 21 23  1  0
 23 24  2  0
 17  7  1  0
 24 18  1  0
 16 11  1  0
M  END
>  <assay_chembl_id>  (557) 
CHEMBL3863662

>  <assay_description>  (557) 
Displacement of [3H]-LSD from human 5-HT2B receptor by liquid scintillation counting method

>  <parent_molecule_chembl_id>  (557) 
CHEMBL3991357

>  <canonical_smiles>  (557) 
Cl.O=C(CCCN1CCCc2ccccc2C1)c1ccc(Cl)cc1

>  <standard_type>  (557) 
Ki

>  <standard_relation>  (557) 
=

>  <standard_value>  (557) 
501.0

>  <standard_units>  (557) 
nM

>  <target_pref_name>  (557) 
Serotonin 2b (5-HT2b) receptor

>  <target_chembl_id>  (557) 
CHEMBL1833

>  <target_organism>  (557) 
Homo sapiens

>  <pchembl_median>  (557) 
5.82

$$$$
CHEMBL3952251
     RDKit          2D

 24 25  0  0  0  0  0  0  0  0999 V2000
    2.6852    0.0000    0.0000 Cl  0  0  0  0  0  0  0  0  0  0  0  0
   -3.8971   -8.3350    0.0000 O   0  0  0  0  0  0  0  0  0  0  0  0
   -2.5981   -9.0850    0.0000 C   0  0  0  0  0  0  0  0  0  0  0  0
   -1.2990   -8.3350    0.0000 C   0  0  0  0  0  0  0  0  0  0  0  0
   -1.2990   -6.8350    0.0000 C   0  0  0  0  0  0  0  0  0  0  0  0
    0.0000   -6.0850    0.0000 C   0  0  0  0  0  0  0  0  0  0  0  0
    0.0000   -4.5850    0.0000 N   0  0  0  0  0  0  0  0  0  0  0  0
    1.3515   -3.9342    0.0000 C   0  0  0  0  0  0  0  0  0  0  0  0
    1.6852   -2.4718    0.0000 C   0  0  0  0  0  0  0  0  0  0  0  0
    0.7500   -1.2990    0.0000 C   0  0  0  0  0  0  0  0  0  0  0  0
    1.5000    0.0000    0.0000 C   0  0  0  0  0  0  0  0  0  0  0  0
    0.7500    1.2990    0.0000 C   0  0  0  0  0  0  0  0  0  0  0  0
   -0.7500    1.2990    0.0000 C   0  0  0  0  0  0  0  0  0  0  0  0
   -1.5000    0.0000    0.0000 C   0  0  0  0  0  0  0  0  0  0  0  0
   -0.7500   -1.2990    0.0000 C   0  0  0  0  0  0  0  0  0  0  0  0
   -1.6852   -2.4718    0.0000 C   0  0  0  0  0  0  0  0  0  0  0  0
   -1.3515   -3.9342    0.0000 C   0  0  0  0  0  0  0  0  0  0  0  0
   -2.5981  -10.5850    0.0000 C   0  0  0  0  0  0  0  0  0  0  0  0
   -3.8971  -11.3350    0.0000 C   0  0  0  0  0  0  0  0  0  0  0  0
   -3.8971  -12.8350    0.0000 C   0  0  0  0  0  0  0  0  0  0  0  0
   -2.5981  -13.5850    0.0000 C   0  0  0  0  0  0  0  0  0  0  0  0
   -2.5981  -15.0850    0.0000 Cl  0  0  0  0  0  0  0  0  0  0  0  0
   -1.2990  -12.8350    0.0000 C   0  0  0  0  0  0  0  0  0  0  0  0
   -1.2990  -11.3350    0.0000 C   0  0  0  0  0  0  0  0  0  0  0  0
  2  3  2  0
  3  4  1  0
  4  5  1  0
  5  6  1  0
  6  7  1  0
  7  8  1  0
  8  9  1  0
  9 10  1  0
 10 11  2  0
 11 12  1  0
 12 13  2  0
 13 14  1  0
 14 15  2  0
 15 16  1  0
 16 17  1  0
  3 18  1  0
 18 19  2  0
 19 20  1  0
 20 21  2  0
 21 22  1  0
 21 23  1  0
 23 24  2  0
 17  7  1  0
 24 18  1  0
 15 10  1  0
M  END
>  <assay_chembl_id>  (558) 
CHEMBL3863662

>  <assay_description>  (558) 
Displacement of [3H]-LSD from human 5-HT2B receptor by liquid scintillation counting method

>  <parent_molecule_chembl_id>  (558) 
CHEMBL3990525

>  <canonical_smiles>  (558) 
Cl.O=C(CCCN1CCc2ccccc2CC1)c1ccc(Cl)cc1

>  <standard_type>  (558) 
Ki

>  <standard_relation>  (558) 
=

>  <standard_value>  (558) 
549.0

>  <standard_units>  (558) 
nM

>  <target_pref_name>  (558) 
Serotonin 2b (5-HT2b) receptor

>  <target_chembl_id>  (558) 
CHEMBL1833

>  <target_organism>  (558) 
Homo sapiens

>  <pchembl_median>  (558) 
6.61

$$$$
CHEMBL3986927
     RDKit          2D

 25 28  0  0  0  0  0  0  0  0999 V2000
  -11.1731  -11.6469    0.0000 O   0  0  0  0  0  0  0  0  0  0  0  0
   -9.8740  -10.8969    0.0000 C   0  0  0  0  0  0  0  0  0  0  0  0
   -9.7172   -9.4051    0.0000 C   0  0  0  0  0  0  0  0  0  0  0  0
   -8.2500   -9.0933    0.0000 C   0  0  0  0  0  0  0  0  0  0  0  0
   -7.5000   -7.7942    0.0000 C   0  0  0  0  0  0  0  0  0  0  0  0
   -6.0000   -7.7942    0.0000 C   0  0  0  0  0  0  0  0  0  0  0  0
   -5.2500   -6.4952    0.0000 C   0  0  0  0  0  0  0  0  0  0  0  0
   -6.0000   -5.1962    0.0000 O   0  0  0  0  0  0  0  0  0  0  0  0
   -3.7500   -6.4952    0.0000 C   0  0  0  0  0  0  0  0  0  0  0  0
   -3.0000   -5.1962    0.0000 C   0  0  0  0  0  0  0  0  0  0  0  0
   -1.5000   -5.1962    0.0000 C   0  0  0  0  0  0  0  0  0  0  0  0
   -0.7500   -3.8971    0.0000 N   0  0  0  0  0  0  0  0  0  0  0  0
    0.7500   -3.8971    0.0000 C   0  0  0  0  0  0  0  0  0  0  0  0
    1.5000   -2.5981    0.0000 C   0  0  0  0  0  0  0  0  0  0  0  0
    0.7500   -1.2990    0.0000 C   0  0  0  0  0  0  0  0  0  0  0  0
    1.5000    0.0000    0.0000 C   0  0  0  0  0  0  0  0  0  0  0  0
    0.7500    1.2990    0.0000 C   0  0  0  0  0  0  0  0  0  0  0  0
   -0.7500    1.2990    0.0000 C   0  0  0  0  0  0  0  0  0  0  0  0
   -1.5000    0.0000    0.0000 C   0  0  0  0  0  0  0  0  0  0  0  0
   -0.7500   -1.2990    0.0000 C   0  0  0  0  0  0  0  0  0  0  0  0
   -1.5000   -2.5981    0.0000 C   0  0  0  0  0  0  0  0  0  0  0  0
   -5.2500   -9.0933    0.0000 C   0  0  0  0  0  0  0  0  0  0  0  0
   -6.0000  -10.3923    0.0000 C   0  0  0  0  0  0  0  0  0  0  0  0
   -7.5000  -10.3923    0.0000 C   0  0  0  0  0  0  0  0  0  0  0  0
   -8.5037  -11.5070    0.0000 N   0  0  0  0  0  0  0  0  0  0  0  0
  1  2  2  0
  2  3  1  0
  3  4  1  0
  4  5  2  0
  5  6  1  0
  6  7  1  0
  7  8  2  0
  7  9  1  0
  9 10  1  0
 10 11  1  0
 11 12  1  0
 12 13  1  0
 13 14  1  0
 14 15  1  0
 15 16  2  0
 16 17  1  0
 17 18  2  0
 18 19  1  0
 19 20  2  0
 20 21  1  0
  6 22  2  0
 22 23  1  0
 23 24  2  0
 24 25  1  0
 25  2  1  0
 24  4  1  0
 21 12  1  0
 20 15  1  0
M  END
>  <assay_chembl_id>  (559) 
CHEMBL3863662

>  <assay_description>  (559) 
Displacement of [3H]-LSD from human 5-HT2B receptor by liquid scintillation counting method

>  <parent_molecule_chembl_id>  (559) 
CHEMBL3986927

>  <canonical_smiles>  (559) 
O=C1Cc2cc(C(=O)CCCN3CCc4ccccc4C3)ccc2N1

>  <standard_type>  (559) 
Ki

>  <standard_relation>  (559) 
=

>  <standard_value>  (559) 
483.0

>  <standard_units>  (559) 
nM

>  <target_pref_name>  (559) 
Serotonin 2b (5-HT2b) receptor

>  <target_chembl_id>  (559) 
CHEMBL1833

>  <target_organism>  (559) 
Homo sapiens

>  <pchembl_median>  (559) 
5.9

$$$$
CHEMBL3958215
     RDKit          2D

 23 26  0  0  0  0  0  0  0  0999 V2000
   -6.2455   -5.5373    0.0000 O   0  0  0  0  0  0  0  0  0  0  0  0
   -5.2418   -6.6520    0.0000 C   0  0  0  0  0  0  0  0  0  0  0  0
   -5.5537   -8.1192    0.0000 C   0  0  0  0  0  0  0  0  0  0  0  0
   -6.8527   -8.8692    0.0000 C   0  0  0  0  0  0  0  0  0  0  0  0
   -6.8527  -10.3692    0.0000 C   0  0  0  0  0  0  0  0  0  0  0  0
   -5.5537  -11.1192    0.0000 C   0  0  0  0  0  0  0  0  0  0  0  0
   -5.5537  -12.6192    0.0000 F   0  0  0  0  0  0  0  0  0  0  0  0
   -4.2546  -10.3692    0.0000 C   0  0  0  0  0  0  0  0  0  0  0  0
   -4.2546   -8.8692    0.0000 C   0  0  0  0  0  0  0  0  0  0  0  0
   -3.1399   -7.8655    0.0000 C   0  0  0  0  0  0  0  0  0  0  0  0
   -3.7500   -6.4952    0.0000 C   0  0  0  0  0  0  0  0  0  0  0  0
   -3.0000   -5.1962    0.0000 C   0  0  0  0  0  0  0  0  0  0  0  0
   -1.5000   -5.1962    0.0000 C   0  0  0  0  0  0  0  0  0  0  0  0
   -0.7500   -3.8971    0.0000 N   0  0  0  0  0  0  0  0  0  0  0  0
    0.7500   -3.8971    0.0000 C   0  0  0  0  0  0  0  0  0  0  0  0
    1.5000   -2.5981    0.0000 C   0  0  0  0  0  0  0  0  0  0  0  0
    0.7500   -1.2990    0.0000 C   0  0  0  0  0  0  0  0  0  0  0  0
    1.5000    0.0000    0.0000 C   0  0  0  0  0  0  0  0  0  0  0  0
    0.7500    1.2990    0.0000 C   0  0  0  0  0  0  0  0  0  0  0  0
   -0.7500    1.2990    0.0000 C   0  0  0  0  0  0  0  0  0  0  0  0
   -1.5000    0.0000    0.0000 C   0  0  0  0  0  0  0  0  0  0  0  0
   -0.7500   -1.2990    0.0000 C   0  0  0  0  0  0  0  0  0  0  0  0
   -1.5000   -2.5981    0.0000 C   0  0  0  0  0  0  0  0  0  0  0  0
  1  2  2  0
  2  3  1  0
  3  4  2  0
  4  5  1  0
  5  6  2  0
  6  7  1  0
  6  8  1  0
  8  9  2  0
  9 10  1  0
 10 11  1  0
 11 12  1  0
 12 13  1  0
 13 14  1  0
 14 15  1  0
 15 16  1  0
 16 17  1  0
 17 18  2  0
 18 19  1  0
 19 20  2  0
 20 21  1  0
 21 22  2  0
 22 23  1  0
 11  2  1  0
 23 14  1  0
  9  3  1  0
 22 17  1  0
M  END
>  <assay_chembl_id>  (560) 
CHEMBL3863662

>  <assay_description>  (560) 
Displacement of [3H]-LSD from human 5-HT2B receptor by liquid scintillation counting method

>  <parent_molecule_chembl_id>  (560) 
CHEMBL3958215

>  <canonical_smiles>  (560) 
O=C1c2ccc(F)cc2CC1CCN1CCc2ccccc2C1

>  <standard_type>  (560) 
Ki

>  <standard_relation>  (560) 
=

>  <standard_value>  (560) 
294.0

>  <standard_units>  (560) 
nM

>  <target_pref_name>  (560) 
Serotonin 2b (5-HT2b) receptor

>  <target_chembl_id>  (560) 
CHEMBL1833

>  <target_organism>  (560) 
Homo sapiens

>  <pchembl_median>  (560) 
6.85

$$$$
CHEMBL3978642
     RDKit          2D

 23 25  0  0  0  0  0  0  0  0999 V2000
    2.5000    0.0000    0.0000 Cl  0  0  0  0  0  0  0  0  0  0  0  0
   -6.2455   -5.5373    0.0000 O   0  0  0  0  0  0  0  0  0  0  0  0
   -5.2418   -6.6520    0.0000 C   0  0  0  0  0  0  0  0  0  0  0  0
   -5.5537   -8.1192    0.0000 C   0  0  0  0  0  0  0  0  0  0  0  0
   -6.8527   -8.8692    0.0000 C   0  0  0  0  0  0  0  0  0  0  0  0
   -6.8527  -10.3692    0.0000 C   0  0  0  0  0  0  0  0  0  0  0  0
   -5.5537  -11.1192    0.0000 C   0  0  0  0  0  0  0  0  0  0  0  0
   -4.2546  -10.3692    0.0000 C   0  0  0  0  0  0  0  0  0  0  0  0
   -4.2546   -8.8692    0.0000 C   0  0  0  0  0  0  0  0  0  0  0  0
   -3.1399   -7.8655    0.0000 C   0  0  0  0  0  0  0  0  0  0  0  0
   -3.7500   -6.4952    0.0000 C   0  0  0  0  0  0  0  0  0  0  0  0
   -3.0000   -5.1962    0.0000 C   0  0  0  0  0  0  0  0  0  0  0  0
   -1.5000   -5.1962    0.0000 C   0  0  0  0  0  0  0  0  0  0  0  0
   -0.7500   -3.8971    0.0000 N   0  0  0  0  0  0  0  0  0  0  0  0
    0.7500   -3.8971    0.0000 C   0  0  0  0  0  0  0  0  0  0  0  0
    1.5000   -2.5981    0.0000 C   0  0  0  0  0  0  0  0  0  0  0  0
    0.7500   -1.2990    0.0000 C   0  0  0  0  0  0  0  0  0  0  0  0
    1.5000    0.0000    0.0000 C   0  0  0  0  0  0  0  0  0  0  0  0
    0.7500    1.2990    0.0000 C   0  0  0  0  0  0  0  0  0  0  0  0
   -0.7500    1.2990    0.0000 C   0  0  0  0  0  0  0  0  0  0  0  0
   -1.5000    0.0000    0.0000 C   0  0  0  0  0  0  0  0  0  0  0  0
   -0.7500   -1.2990    0.0000 C   0  0  0  0  0  0  0  0  0  0  0  0
   -1.5000   -2.5981    0.0000 C   0  0  0  0  0  0  0  0  0  0  0  0
  2  3  2  0
  3  4  1  0
  4  5  2  0
  5  6  1  0
  6  7  2  0
  7  8  1  0
  8  9  2  0
  9 10  1  0
 10 11  1  0
 11 12  1  0
 12 13  1  0
 13 14  1  0
 14 15  1  0
 15 16  1  0
 16 17  1  0
 17 18  2  0
 18 19  1  0
 19 20  2  0
 20 21  1  0
 21 22  2  0
 22 23  1  0
 11  3  1  0
 23 14  1  0
  9  4  1  0
 22 17  1  0
M  END
>  <assay_chembl_id>  (561) 
CHEMBL3863662

>  <assay_description>  (561) 
Displacement of [3H]-LSD from human 5-HT2B receptor by liquid scintillation counting method

>  <parent_molecule_chembl_id>  (561) 
CHEMBL3991094

>  <canonical_smiles>  (561) 
Cl.O=C1c2ccccc2CC1CCN1CCc2ccccc2C1

>  <standard_type>  (561) 
Ki

>  <standard_relation>  (561) 
=

>  <standard_value>  (561) 
391.0

>  <standard_units>  (561) 
nM

>  <target_pref_name>  (561) 
Serotonin 2b (5-HT2b) receptor

>  <target_chembl_id>  (561) 
CHEMBL1833

>  <target_organism>  (561) 
Homo sapiens

>  <pchembl_median>  (561) 
7.47

$$$$
CHEMBL3898250
     RDKit          2D

 24 26  0  0  0  0  0  0  0  0999 V2000
    2.5000    0.0000    0.0000 Cl  0  0  0  0  0  0  0  0  0  0  0  0
   -6.2455   -5.5373    0.0000 O   0  0  0  0  0  0  0  0  0  0  0  0
   -5.2418   -6.6520    0.0000 C   0  0  0  0  0  0  0  0  0  0  0  0
   -5.5537   -8.1192    0.0000 C   0  0  0  0  0  0  0  0  0  0  0  0
   -6.8527   -8.8692    0.0000 C   0  0  0  0  0  0  0  0  0  0  0  0
   -6.8527  -10.3692    0.0000 C   0  0  0  0  0  0  0  0  0  0  0  0
   -5.5537  -11.1192    0.0000 C   0  0  0  0  0  0  0  0  0  0  0  0
   -5.5537  -12.6192    0.0000 Cl  0  0  0  0  0  0  0  0  0  0  0  0
   -4.2546  -10.3692    0.0000 C   0  0  0  0  0  0  0  0  0  0  0  0
   -4.2546   -8.8692    0.0000 C   0  0  0  0  0  0  0  0  0  0  0  0
   -3.1399   -7.8655    0.0000 C   0  0  0  0  0  0  0  0  0  0  0  0
   -3.7500   -6.4952    0.0000 C   0  0  0  0  0  0  0  0  0  0  0  0
   -3.0000   -5.1962    0.0000 C   0  0  0  0  0  0  0  0  0  0  0  0
   -1.5000   -5.1962    0.0000 C   0  0  0  0  0  0  0  0  0  0  0  0
   -0.7500   -3.8971    0.0000 N   0  0  0  0  0  0  0  0  0  0  0  0
    0.7500   -3.8971    0.0000 C   0  0  0  0  0  0  0  0  0  0  0  0
    1.5000   -2.5981    0.0000 C   0  0  0  0  0  0  0  0  0  0  0  0
    0.7500   -1.2990    0.0000 C   0  0  0  0  0  0  0  0  0  0  0  0
    1.5000    0.0000    0.0000 C   0  0  0  0  0  0  0  0  0  0  0  0
    0.7500    1.2990    0.0000 C   0  0  0  0  0  0  0  0  0  0  0  0
   -0.7500    1.2990    0.0000 C   0  0  0  0  0  0  0  0  0  0  0  0
   -1.5000    0.0000    0.0000 C   0  0  0  0  0  0  0  0  0  0  0  0
   -0.7500   -1.2990    0.0000 C   0  0  0  0  0  0  0  0  0  0  0  0
   -1.5000   -2.5981    0.0000 C   0  0  0  0  0  0  0  0  0  0  0  0
  2  3  2  0
  3  4  1  0
  4  5  2  0
  5  6  1  0
  6  7  2  0
  7  8  1  0
  7  9  1  0
  9 10  2  0
 10 11  1  0
 11 12  1  0
 12 13  1  0
 13 14  1  0
 14 15  1  0
 15 16  1  0
 16 17  1  0
 17 18  1  0
 18 19  2  0
 19 20  1  0
 20 21  2  0
 21 22  1  0
 22 23  2  0
 23 24  1  0
 12  3  1  0
 24 15  1  0
 10  4  1  0
 23 18  1  0
M  END
>  <assay_chembl_id>  (562) 
CHEMBL3863662

>  <assay_description>  (562) 
Displacement of [3H]-LSD from human 5-HT2B receptor by liquid scintillation counting method

>  <parent_molecule_chembl_id>  (562) 
CHEMBL3991133

>  <canonical_smiles>  (562) 
Cl.O=C1c2ccc(Cl)cc2CC1CCN1CCc2ccccc2C1

>  <standard_type>  (562) 
Ki

>  <standard_relation>  (562) 
=

>  <standard_value>  (562) 
109.0

>  <standard_units>  (562) 
nM

>  <target_pref_name>  (562) 
Serotonin 2b (5-HT2b) receptor

>  <target_chembl_id>  (562) 
CHEMBL1833

>  <target_organism>  (562) 
Homo sapiens

>  <pchembl_median>  (562) 
6.3

$$$$
CHEMBL282199
     RDKit          2D

 24 26  0  0  0  0  0  0  0  0999 V2000
    3.0000    0.0000    0.0000 C   0  0  0  0  0  0  0  0  0  0  0  0
    1.5000    0.0000    0.0000 C   0  0  0  0  0  0  0  0  0  0  0  0
    0.7500   -1.2990    0.0000 C   0  0  0  0  0  0  0  0  0  0  0  0
   -0.7500   -1.2990    0.0000 C   0  0  0  0  0  0  0  0  0  0  0  0
   -1.5000    0.0000    0.0000 N   0  0  0  0  0  0  0  0  0  0  0  0
   -3.0000    0.0000    0.0000 C   0  0  0  0  0  0  0  0  0  0  0  0
   -3.7500    1.2990    0.0000 C   0  0  0  0  0  0  0  0  0  0  0  0
   -5.2500    1.2990    0.0000 C   0  0  0  0  0  0  0  0  0  0  0  0
   -6.1317    0.0855    0.0000 C   0  0  0  0  0  0  0  0  0  0  0  0
   -7.5583    0.5490    0.0000 C   0  0  0  0  0  0  0  0  0  0  0  0
   -7.5583    2.0490    0.0000 C   0  0  0  0  0  0  0  0  0  0  0  0
   -6.1317    2.5126    0.0000 N   0  0  0  0  0  0  0  0  0  0  0  0
   -5.6682    3.9391    0.0000 S   0  0  0  0  0  0  0  0  0  0  0  0
   -4.2416    3.4756    0.0000 O   0  0  0  0  0  0  0  0  0  0  0  0
   -7.0947    4.4027    0.0000 O   0  0  0  0  0  0  0  0  0  0  0  0
   -5.2046    5.3657    0.0000 C   0  0  0  0  0  0  0  0  0  0  0  0
   -3.7374    5.6776    0.0000 C   0  0  0  0  0  0  0  0  0  0  0  0
   -3.2739    7.1042    0.0000 C   0  0  0  0  0  0  0  0  0  0  0  0
   -4.2776    8.2189    0.0000 C   0  0  0  0  0  0  0  0  0  0  0  0
   -5.7448    7.9070    0.0000 C   0  0  0  0  0  0  0  0  0  0  0  0
   -6.7485    9.0218    0.0000 O   0  0  0  0  0  0  0  0  0  0  0  0
   -6.2083    6.4805    0.0000 C   0  0  0  0  0  0  0  0  0  0  0  0
   -0.7500    1.2990    0.0000 C   0  0  0  0  0  0  0  0  0  0  0  0
    0.7500    1.2990    0.0000 C   0  0  0  0  0  0  0  0  0  0  0  0
  1  2  1  0
  2  3  1  0
  3  4  1  0
  4  5  1  0
  5  6  1  0
  6  7  1  0
  8  7  1  1
  8  9  1  0
  9 10  1  0
 10 11  1  0
 11 12  1  0
 12 13  1  0
 13 14  2  0
 13 15  2  0
 13 16  1  0
 16 17  2  0
 17 18  1  0
 18 19  2  0
 19 20  1  0
 20 21  1  0
 20 22  2  0
  5 23  1  0
 23 24  1  0
 24  2  1  0
 12  8  1  0
 22 16  1  0
M  END
>  <assay_chembl_id>  (563) 
CHEMBL3863668

>  <assay_description>  (563) 
Displacement of [3H]-5-HT from human 5-HT2B receptor expressed in HEK293 cells

>  <parent_molecule_chembl_id>  (563) 
CHEMBL282199

>  <canonical_smiles>  (563) 
CC1CCN(CC[C@H]2CCCN2S(=O)(=O)c2cccc(O)c2)CC1

>  <standard_type>  (563) 
Ki

>  <standard_relation>  (563) 
=

>  <standard_value>  (563) 
5.0

>  <standard_units>  (563) 
nM

>  <target_pref_name>  (563) 
Serotonin 2b (5-HT2b) receptor

>  <target_chembl_id>  (563) 
CHEMBL1833

>  <target_organism>  (563) 
Homo sapiens

>  <pchembl_median>  (563) 
6.4

$$$$
CHEMBL3914002
     RDKit          2D

 19 21  0  0  0  0  0  0  0  0999 V2000
   -8.1652   -1.5676    0.0000 Cl  0  0  0  0  0  0  0  0  0  0  0  0
   -7.8533   -0.1004    0.0000 C   0  0  0  0  0  0  0  0  0  0  0  0
   -8.9681    0.9033    0.0000 C   0  0  0  0  0  0  0  0  0  0  0  0
   -8.6562    2.3705    0.0000 C   0  0  0  0  0  0  0  0  0  0  0  0
   -7.2296    2.8340    0.0000 C   0  0  0  0  0  0  0  0  0  0  0  0
   -6.1149    1.8303    0.0000 C   0  0  0  0  0  0  0  0  0  0  0  0
   -4.6883    2.2939    0.0000 C   0  0  0  0  0  0  0  0  0  0  0  0
   -3.5736    1.2902    0.0000 N   0  0  0  0  0  0  0  0  0  0  0  0
   -2.1470    1.7537    0.0000 C   0  0  0  0  0  0  0  0  0  0  0  0
   -1.8351    3.2209    0.0000 N   0  0  0  0  0  0  0  0  0  0  0  0
   -0.4086    3.6844    0.0000 C   0  0  0  0  0  0  0  0  0  0  0  0
   -0.0967    5.1517    0.0000 Cl  0  0  0  0  0  0  0  0  0  0  0  0
    0.7062    2.6807    0.0000 N   0  0  0  0  0  0  0  0  0  0  0  0
    0.3943    1.2135    0.0000 C   0  0  0  0  0  0  0  0  0  0  0  0
    1.2760    0.0000    0.0000 N   0  0  0  0  0  0  0  0  0  0  0  0
    0.3943   -1.2135    0.0000 C   0  0  0  0  0  0  0  0  0  0  0  0
   -1.0323   -0.7500    0.0000 N   0  0  0  0  0  0  0  0  0  0  0  0
   -1.0323    0.7500    0.0000 C   0  0  0  0  0  0  0  0  0  0  0  0
   -6.4268    0.3631    0.0000 C   0  0  0  0  0  0  0  0  0  0  0  0
  1  2  1  0
  2  3  2  0
  3  4  1  0
  4  5  2  0
  5  6  1  0
  6  7  1  0
  7  8  1  0
  8  9  1  0
  9 10  2  0
 10 11  1  0
 11 12  1  0
 11 13  2  0
 13 14  1  0
 14 15  1  0
 15 16  1  0
 16 17  2  0
 17 18  1  0
  6 19  2  0
 19  2  1  0
 18  9  1  0
 18 14  2  0
M  END
>  <assay_chembl_id>  (564) 
CHEMBL3863860

>  <assay_description>  (564) 
Displacement of [3H]lysergic from human 5-HT2BR expressed in HEK cell membranes incubated in dark for 90 mins by microbeta scintillation counting method

>  <parent_molecule_chembl_id>  (564) 
CHEMBL3914002

>  <canonical_smiles>  (564) 
Clc1cccc(CNc2nc(Cl)nc3[nH]cnc23)c1

>  <standard_type>  (564) 
Ki

>  <standard_relation>  (564) 
=

>  <standard_value>  (564) 
2160.0

>  <standard_units>  (564) 
nM

>  <target_pref_name>  (564) 
Serotonin 2b (5-HT2b) receptor

>  <target_chembl_id>  (564) 
CHEMBL1833

>  <target_organism>  (564) 
Homo sapiens

>  <pchembl_median>  (564) 
5.39

$$$$
CHEMBL3941980
     RDKit          2D

 28 31  0  0  0  0  0  0  0  0999 V2000
   -8.5234    9.2431    0.0000 F   0  0  0  0  0  0  0  0  0  0  0  0
   -7.4087    8.2394    0.0000 C   0  0  0  0  0  0  0  0  0  0  0  0
   -5.9821    8.7029    0.0000 C   0  0  0  0  0  0  0  0  0  0  0  0
   -4.8674    7.6992    0.0000 C   0  0  0  0  0  0  0  0  0  0  0  0
   -5.1793    6.2320    0.0000 C   0  0  0  0  0  0  0  0  0  0  0  0
   -4.0646    5.2283    0.0000 C   0  0  0  0  0  0  0  0  0  0  0  0
   -2.9499    4.2246    0.0000 C   0  0  0  0  0  0  0  0  0  0  0  0
   -1.8351    3.2209    0.0000 C   0  0  0  0  0  0  0  0  0  0  0  0
   -0.4086    3.6844    0.0000 N   0  0  0  0  0  0  0  0  0  0  0  0
    0.7062    2.6807    0.0000 C   0  0  0  0  0  0  0  0  0  0  0  0
    2.1328    3.1443    0.0000 N   0  0  0  0  0  0  0  0  0  0  0  0
    2.4446    4.6115    0.0000 C   0  0  0  0  0  0  0  0  0  0  0  0
    3.8712    5.0750    0.0000 C   0  0  0  0  0  0  0  0  0  0  0  0
    4.9859    4.0713    0.0000 C   0  0  0  0  0  0  0  0  0  0  0  0
    6.4125    4.5348    0.0000 C   0  0  0  0  0  0  0  0  0  0  0  0
    6.7244    6.0021    0.0000 C   0  0  0  0  0  0  0  0  0  0  0  0
    5.6097    7.0058    0.0000 C   0  0  0  0  0  0  0  0  0  0  0  0
    5.9215    8.4730    0.0000 Cl  0  0  0  0  0  0  0  0  0  0  0  0
    4.1831    6.5422    0.0000 C   0  0  0  0  0  0  0  0  0  0  0  0
    0.3943    1.2135    0.0000 C   0  0  0  0  0  0  0  0  0  0  0  0
    1.2760    0.0000    0.0000 N   0  0  0  0  0  0  0  0  0  0  0  0
    0.3943   -1.2135    0.0000 C   0  0  0  0  0  0  0  0  0  0  0  0
   -1.0323   -0.7500    0.0000 N   0  0  0  0  0  0  0  0  0  0  0  0
   -1.0323    0.7500    0.0000 C   0  0  0  0  0  0  0  0  0  0  0  0
   -2.1470    1.7537    0.0000 N   0  0  0  0  0  0  0  0  0  0  0  0
   -6.6059    5.7685    0.0000 C   0  0  0  0  0  0  0  0  0  0  0  0
   -7.7206    6.7722    0.0000 C   0  0  0  0  0  0  0  0  0  0  0  0
   -9.1472    6.3086    0.0000 F   0  0  0  0  0  0  0  0  0  0  0  0
  1  2  1  0
  2  3  2  0
  3  4  1  0
  4  5  2  0
  5  6  1  0
  6  7  3  0
  7  8  1  0
  8  9  2  0
  9 10  1  0
 10 11  1  0
 11 12  1  0
 12 13  1  0
 13 14  2  0
 14 15  1  0
 15 16  2  0
 16 17  1  0
 17 18  1  0
 17 19  2  0
 10 20  2  0
 20 21  1  0
 21 22  2  0
 22 23  1  0
 23 24  1  0
 24 25  2  0
  5 26  1  0
 26 27  2  0
 27 28  1  0
 27  2  1  0
 25  8  1  0
 19 13  1  0
 24 20  1  0
M  END
>  <assay_chembl_id>  (565) 
CHEMBL3863860

>  <assay_description>  (565) 
Displacement of [3H]lysergic from human 5-HT2BR expressed in HEK cell membranes incubated in dark for 90 mins by microbeta scintillation counting method

>  <parent_molecule_chembl_id>  (565) 
CHEMBL3941980

>  <canonical_smiles>  (565) 
Fc1ccc(C#Cc2nc(NCc3cccc(Cl)c3)c3nc[nH]c3n2)cc1F

>  <standard_type>  (565) 
Ki

>  <standard_relation>  (565) 
=

>  <standard_value>  (565) 
4000.0

>  <standard_units>  (565) 
nM

>  <target_pref_name>  (565) 
Serotonin 2b (5-HT2b) receptor

>  <target_chembl_id>  (565) 
CHEMBL1833

>  <target_organism>  (565) 
Homo sapiens

>  <pchembl_median>  (565) 
6.29

$$$$
CHEMBL523797
     RDKit          2D

 27 31  0  0  0  0  0  0  0  0999 V2000
   -1.5239    3.8536    0.0000 O   0  0  0  0  0  0  0  0  0  0  0  0
   -0.0239    3.8536    0.0000 C   0  0  0  0  0  0  0  0  0  0  0  0
    0.8578    5.0672    0.0000 C   0  0  0  0  0  0  0  0  0  0  0  0
    0.3943    6.4937    0.0000 O   0  0  0  0  0  0  0  0  0  0  0  0
    2.2844    4.6036    0.0000 C   0  0  0  0  0  0  0  0  0  0  0  0
    3.5834    3.8536    0.0000 C   0  0  0  0  0  0  0  0  0  0  0  0
    2.2844    3.1036    0.0000 C   0  0  0  0  0  0  0  0  0  0  0  0
    0.8578    2.6401    0.0000 C   0  0  0  0  0  0  0  0  0  0  0  0
    0.3943    1.2135    0.0000 N   0  0  0  0  0  0  0  0  0  0  0  0
    1.2760    0.0000    0.0000 C   0  0  0  0  0  0  0  0  0  0  0  0
    0.3943   -1.2135    0.0000 N   0  0  0  0  0  0  0  0  0  0  0  0
   -1.0323   -0.7500    0.0000 C   0  0  0  0  0  0  0  0  0  0  0  0
   -2.3313   -1.5000    0.0000 C   0  0  0  0  0  0  0  0  0  0  0  0
   -2.3313   -3.0000    0.0000 N   0  0  0  0  0  0  0  0  0  0  0  0
   -3.6304   -3.7500    0.0000 C   0  0  0  0  0  0  0  0  0  0  0  0
   -3.6304   -5.2500    0.0000 C   0  0  0  0  0  0  0  0  0  0  0  0
   -4.9294   -6.0000    0.0000 C   0  0  0  0  0  0  0  0  0  0  0  0
   -4.9294   -7.5000    0.0000 C   0  0  0  0  0  0  0  0  0  0  0  0
   -3.6304   -8.2500    0.0000 C   0  0  0  0  0  0  0  0  0  0  0  0
   -2.3313   -7.5000    0.0000 C   0  0  0  0  0  0  0  0  0  0  0  0
   -1.0323   -8.2500    0.0000 Cl  0  0  0  0  0  0  0  0  0  0  0  0
   -2.3313   -6.0000    0.0000 C   0  0  0  0  0  0  0  0  0  0  0  0
   -3.6304   -0.7500    0.0000 N   0  0  0  0  0  0  0  0  0  0  0  0
   -3.6304    0.7500    0.0000 C   0  0  0  0  0  0  0  0  0  0  0  0
   -4.9294    1.5000    0.0000 Cl  0  0  0  0  0  0  0  0  0  0  0  0
   -2.3313    1.5000    0.0000 N   0  0  0  0  0  0  0  0  0  0  0  0
   -1.0323    0.7500    0.0000 C   0  0  0  0  0  0  0  0  0  0  0  0
  2  1  1  6
  2  3  1  0
  3  4  1  6
  3  5  1  0
  5  6  1  6
  7  6  1  6
  7  8  1  0
  8  9  1  1
  9 10  1  0
 10 11  2  0
 11 12  1  0
 12 13  2  0
 13 14  1  0
 14 15  1  0
 15 16  1  0
 16 17  2  0
 17 18  1  0
 18 19  2  0
 19 20  1  0
 20 21  1  0
 20 22  2  0
 13 23  1  0
 23 24  2  0
 24 25  1  0
 24 26  1  0
 26 27  2  0
  8  2  1  0
 27  9  1  0
  7  5  1  0
 27 12  1  0
 22 16  1  0
M  END
>  <assay_chembl_id>  (566) 
CHEMBL3863860

>  <assay_description>  (566) 
Displacement of [3H]lysergic from human 5-HT2BR expressed in HEK cell membranes incubated in dark for 90 mins by microbeta scintillation counting method

>  <parent_molecule_chembl_id>  (566) 
CHEMBL523797

>  <canonical_smiles>  (566) 
O[C@@H]1[C@H](O)[C@@H]2C[C@@H]2[C@H]1n1cnc2c(NCc3cccc(Cl)c3)nc(Cl)nc21

>  <standard_type>  (566) 
Ki

>  <standard_relation>  (566) 
=

>  <standard_value>  (566) 
2390.0

>  <standard_units>  (566) 
nM

>  <target_pref_name>  (566) 
Serotonin 2b (5-HT2b) receptor

>  <target_chembl_id>  (566) 
CHEMBL1833

>  <target_organism>  (566) 
Homo sapiens

>  <pchembl_median>  (566) 
7.1

$$$$
CHEMBL2012686
     RDKit          2D

 26 31  0  0  0  0  0  0  0  0999 V2000
   -1.5239    3.8536    0.0000 O   0  0  0  0  0  0  0  0  0  0  0  0
   -0.0239    3.8536    0.0000 C   0  0  0  0  0  0  0  0  0  0  0  0
    0.8578    5.0672    0.0000 C   0  0  0  0  0  0  0  0  0  0  0  0
    0.3943    6.4937    0.0000 O   0  0  0  0  0  0  0  0  0  0  0  0
    2.2844    4.6036    0.0000 C   0  0  0  0  0  0  0  0  0  0  0  0
    3.5834    3.8536    0.0000 C   0  0  0  0  0  0  0  0  0  0  0  0
    2.2844    3.1036    0.0000 C   0  0  0  0  0  0  0  0  0  0  0  0
    0.8578    2.6401    0.0000 C   0  0  0  0  0  0  0  0  0  0  0  0
    0.3943    1.2135    0.0000 N   0  0  0  0  0  0  0  0  0  0  0  0
    1.2760    0.0000    0.0000 C   0  0  0  0  0  0  0  0  0  0  0  0
    0.3943   -1.2135    0.0000 N   0  0  0  0  0  0  0  0  0  0  0  0
   -1.0323   -0.7500    0.0000 C   0  0  0  0  0  0  0  0  0  0  0  0
   -2.3313   -1.5000    0.0000 C   0  0  0  0  0  0  0  0  0  0  0  0
   -2.3313   -3.0000    0.0000 N   0  0  0  0  0  0  0  0  0  0  0  0
   -3.6304   -3.7500    0.0000 C   0  0  0  0  0  0  0  0  0  0  0  0
   -3.6304   -5.2500    0.0000 C   0  0  0  0  0  0  0  0  0  0  0  0
   -2.8804   -6.5490    0.0000 C   0  0  0  0  0  0  0  0  0  0  0  0
   -4.3804   -6.5490    0.0000 C   0  0  0  0  0  0  0  0  0  0  0  0
   -4.9294   -3.0000    0.0000 C   0  0  0  0  0  0  0  0  0  0  0  0
   -6.4294   -3.0000    0.0000 C   0  0  0  0  0  0  0  0  0  0  0  0
   -5.6794   -1.7010    0.0000 C   0  0  0  0  0  0  0  0  0  0  0  0
   -3.6304   -0.7500    0.0000 N   0  0  0  0  0  0  0  0  0  0  0  0
   -3.6304    0.7500    0.0000 C   0  0  0  0  0  0  0  0  0  0  0  0
   -4.9294    1.5000    0.0000 Cl  0  0  0  0  0  0  0  0  0  0  0  0
   -2.3313    1.5000    0.0000 N   0  0  0  0  0  0  0  0  0  0  0  0
   -1.0323    0.7500    0.0000 C   0  0  0  0  0  0  0  0  0  0  0  0
  2  1  1  6
  2  3  1  0
  3  4  1  6
  3  5  1  0
  5  6  1  6
  7  6  1  6
  7  8  1  0
  8  9  1  1
  9 10  1  0
 10 11  2  0
 11 12  1  0
 12 13  2  0
 13 14  1  0
 14 15  1  0
 15 16  1  0
 16 17  1  0
 17 18  1  0
 15 19  1  0
 19 20  1  0
 20 21  1  0
 13 22  1  0
 22 23  2  0
 23 24  1  0
 23 25  1  0
 25 26  2  0
  8  2  1  0
 26  9  1  0
  7  5  1  0
 26 12  1  0
 18 16  1  0
 21 19  1  0
M  END
>  <assay_chembl_id>  (567) 
CHEMBL3863860

>  <assay_description>  (567) 
Displacement of [3H]lysergic from human 5-HT2BR expressed in HEK cell membranes incubated in dark for 90 mins by microbeta scintillation counting method

>  <parent_molecule_chembl_id>  (567) 
CHEMBL2012686

>  <canonical_smiles>  (567) 
O[C@@H]1[C@H](O)[C@@H]2C[C@@H]2[C@H]1n1cnc2c(NC(C3CC3)C3CC3)nc(Cl)nc21

>  <standard_type>  (567) 
Ki

>  <standard_relation>  (567) 
=

>  <standard_value>  (567) 
675.0

>  <standard_units>  (567) 
nM

>  <target_pref_name>  (567) 
Serotonin 2b (5-HT2b) receptor

>  <target_chembl_id>  (567) 
CHEMBL1833

>  <target_organism>  (567) 
Homo sapiens

>  <pchembl_median>  (567) 
8.52

$$$$
CHEMBL119709
     RDKit          2D

 29 32  0  0  0  0  0  0  0  0999 V2000
   -9.8928    3.3629    0.0000 C   0  0  0  0  0  0  0  0  0  0  0  0
   -8.4010    3.2061    0.0000 N   0  0  0  0  0  0  0  0  0  0  0  0
   -7.7909    1.8358    0.0000 C   0  0  0  0  0  0  0  0  0  0  0  0
   -8.6726    0.6223    0.0000 O   0  0  0  0  0  0  0  0  0  0  0  0
   -6.2992    1.6790    0.0000 C   0  0  0  0  0  0  0  0  0  0  0  0
   -5.5492    0.3800    0.0000 O   0  0  0  0  0  0  0  0  0  0  0  0
   -4.0819    0.6918    0.0000 C   0  0  0  0  0  0  0  0  0  0  0  0
   -2.9672   -0.3119    0.0000 N   0  0  0  0  0  0  0  0  0  0  0  0
   -3.1240   -1.8037    0.0000 C   0  0  0  0  0  0  0  0  0  0  0  0
   -1.7537   -2.4138    0.0000 N   0  0  0  0  0  0  0  0  0  0  0  0
   -0.7500   -1.2990    0.0000 C   0  0  0  0  0  0  0  0  0  0  0  0
    0.7500   -1.2990    0.0000 C   0  0  0  0  0  0  0  0  0  0  0  0
    1.5000   -2.5981    0.0000 N   0  0  0  0  0  0  0  0  0  0  0  0
    3.0000   -2.5981    0.0000 C   0  0  0  0  0  0  0  0  0  0  0  0
    3.7500   -3.8971    0.0000 C   0  0  0  0  0  0  0  0  0  0  0  0
    3.0000   -5.1962    0.0000 C   0  0  0  0  0  0  0  0  0  0  0  0
    3.7500   -6.4952    0.0000 C   0  0  0  0  0  0  0  0  0  0  0  0
    5.2500   -6.4952    0.0000 C   0  0  0  0  0  0  0  0  0  0  0  0
    6.0000   -5.1962    0.0000 C   0  0  0  0  0  0  0  0  0  0  0  0
    7.5000   -5.1962    0.0000 I   0  0  0  0  0  0  0  0  0  0  0  0
    5.2500   -3.8971    0.0000 C   0  0  0  0  0  0  0  0  0  0  0  0
    1.5000    0.0000    0.0000 N   0  0  0  0  0  0  0  0  0  0  0  0
    0.7500    1.2990    0.0000 C   0  0  0  0  0  0  0  0  0  0  0  0
   -0.7500    1.2990    0.0000 N   0  0  0  0  0  0  0  0  0  0  0  0
   -1.5000    0.0000    0.0000 C   0  0  0  0  0  0  0  0  0  0  0  0
   -3.9251    2.1836    0.0000 C   0  0  0  0  0  0  0  0  0  0  0  0
   -2.6261    2.9336    0.0000 O   0  0  0  0  0  0  0  0  0  0  0  0
   -5.2955    2.7937    0.0000 C   0  0  0  0  0  0  0  0  0  0  0  0
   -5.6073    4.2609    0.0000 O   0  0  0  0  0  0  0  0  0  0  0  0
  1  2  1  0
  2  3  1  0
  3  4  2  0
  5  3  1  6
  5  6  1  0
  6  7  1  0
  7  8  1  6
  8  9  1  0
  9 10  2  0
 10 11  1  0
 11 12  2  0
 12 13  1  0
 13 14  1  0
 14 15  1  0
 15 16  2  0
 16 17  1  0
 17 18  2  0
 18 19  1  0
 19 20  1  0
 19 21  2  0
 12 22  1  0
 22 23  2  0
 23 24  1  0
 24 25  2  0
  7 26  1  0
 26 27  1  1
 26 28  1  0
 28 29  1  1
 28  5  1  0
 25  8  1  0
 25 11  1  0
 21 15  1  0
M  END
>  <assay_chembl_id>  (568) 
CHEMBL3863860

>  <assay_description>  (568) 
Displacement of [3H]lysergic from human 5-HT2BR expressed in HEK cell membranes incubated in dark for 90 mins by microbeta scintillation counting method

>  <parent_molecule_chembl_id>  (568) 
CHEMBL119709

>  <canonical_smiles>  (568) 
CNC(=O)[C@H]1O[C@@H](n2cnc3c(NCc4cccc(I)c4)ncnc32)[C@H](O)[C@@H]1O

>  <standard_type>  (568) 
Ki

>  <standard_relation>  (568) 
=

>  <standard_value>  (568) 
1080.0

>  <standard_units>  (568) 
nM

>  <target_pref_name>  (568) 
Serotonin 2b (5-HT2b) receptor

>  <target_chembl_id>  (568) 
CHEMBL1833

>  <target_organism>  (568) 
Homo sapiens

>  <pchembl_median>  (568) 
6.61

$$$$
CHEMBL431733
     RDKit          2D

 30 33  0  0  0  0  0  0  0  0999 V2000
    0.9345    9.0350    0.0000 C   0  0  0  0  0  0  0  0  0  0  0  0
    1.3980    7.6085    0.0000 N   0  0  0  0  0  0  0  0  0  0  0  0
    0.3943    6.4937    0.0000 C   0  0  0  0  0  0  0  0  0  0  0  0
   -1.0729    6.8056    0.0000 O   0  0  0  0  0  0  0  0  0  0  0  0
    0.8578    5.0672    0.0000 C   0  0  0  0  0  0  0  0  0  0  0  0
   -0.0239    3.8536    0.0000 O   0  0  0  0  0  0  0  0  0  0  0  0
    0.8578    2.6401    0.0000 C   0  0  0  0  0  0  0  0  0  0  0  0
    0.3943    1.2135    0.0000 N   0  0  0  0  0  0  0  0  0  0  0  0
    1.2760    0.0000    0.0000 C   0  0  0  0  0  0  0  0  0  0  0  0
    0.3943   -1.2135    0.0000 N   0  0  0  0  0  0  0  0  0  0  0  0
   -1.0323   -0.7500    0.0000 C   0  0  0  0  0  0  0  0  0  0  0  0
   -2.3313   -1.5000    0.0000 C   0  0  0  0  0  0  0  0  0  0  0  0
   -2.3313   -3.0000    0.0000 N   0  0  0  0  0  0  0  0  0  0  0  0
   -3.6304   -3.7500    0.0000 C   0  0  0  0  0  0  0  0  0  0  0  0
   -3.6304   -5.2500    0.0000 C   0  0  0  0  0  0  0  0  0  0  0  0
   -4.9294   -6.0000    0.0000 C   0  0  0  0  0  0  0  0  0  0  0  0
   -4.9294   -7.5000    0.0000 C   0  0  0  0  0  0  0  0  0  0  0  0
   -3.6304   -8.2500    0.0000 C   0  0  0  0  0  0  0  0  0  0  0  0
   -2.3313   -7.5000    0.0000 C   0  0  0  0  0  0  0  0  0  0  0  0
   -1.0323   -8.2500    0.0000 I   0  0  0  0  0  0  0  0  0  0  0  0
   -2.3313   -6.0000    0.0000 C   0  0  0  0  0  0  0  0  0  0  0  0
   -3.6304   -0.7500    0.0000 N   0  0  0  0  0  0  0  0  0  0  0  0
   -3.6304    0.7500    0.0000 C   0  0  0  0  0  0  0  0  0  0  0  0
   -4.9294    1.5000    0.0000 Cl  0  0  0  0  0  0  0  0  0  0  0  0
   -2.3313    1.5000    0.0000 N   0  0  0  0  0  0  0  0  0  0  0  0
   -1.0323    0.7500    0.0000 C   0  0  0  0  0  0  0  0  0  0  0  0
    2.2844    3.1036    0.0000 C   0  0  0  0  0  0  0  0  0  0  0  0
    3.4979    2.2220    0.0000 O   0  0  0  0  0  0  0  0  0  0  0  0
    2.2844    4.6036    0.0000 C   0  0  0  0  0  0  0  0  0  0  0  0
    3.4979    5.4853    0.0000 O   0  0  0  0  0  0  0  0  0  0  0  0
  1  2  1  0
  2  3  1  0
  3  4  2  0
  5  3  1  6
  5  6  1  0
  6  7  1  0
  7  8  1  6
  8  9  1  0
  9 10  2  0
 10 11  1  0
 11 12  2  0
 12 13  1  0
 13 14  1  0
 14 15  1  0
 15 16  2  0
 16 17  1  0
 17 18  2  0
 18 19  1  0
 19 20  1  0
 19 21  2  0
 12 22  1  0
 22 23  2  0
 23 24  1  0
 23 25  1  0
 25 26  2  0
  7 27  1  0
 27 28  1  1
 27 29  1  0
 29 30  1  1
 29  5  1  0
 26  8  1  0
 26 11  1  0
 21 15  1  0
M  END
>  <assay_chembl_id>  (569) 
CHEMBL3863860

>  <assay_description>  (569) 
Displacement of [3H]lysergic from human 5-HT2BR expressed in HEK cell membranes incubated in dark for 90 mins by microbeta scintillation counting method

>  <parent_molecule_chembl_id>  (569) 
CHEMBL431733

>  <canonical_smiles>  (569) 
CNC(=O)[C@H]1O[C@@H](n2cnc3c(NCc4cccc(I)c4)nc(Cl)nc32)[C@H](O)[C@@H]1O

>  <standard_type>  (569) 
Ki

>  <standard_relation>  (569) 
=

>  <standard_value>  (569) 
2770.0

>  <standard_units>  (569) 
nM

>  <target_pref_name>  (569) 
Serotonin 2b (5-HT2b) receptor

>  <target_chembl_id>  (569) 
CHEMBL1833

>  <target_organism>  (569) 
Homo sapiens

>  <pchembl_median>  (569) 
7.27

$$$$
CHEMBL286739
     RDKit          2D

 22 25  0  0  0  0  0  0  0  0999 V2000
    2.4446    4.6115    0.0000 C   0  0  0  0  0  0  0  0  0  0  0  0
    2.1328    3.1443    0.0000 N   0  0  0  0  0  0  0  0  0  0  0  0
    0.7062    2.6807    0.0000 C   0  0  0  0  0  0  0  0  0  0  0  0
   -0.4086    3.6844    0.0000 N   0  0  0  0  0  0  0  0  0  0  0  0
   -1.8351    3.2209    0.0000 C   0  0  0  0  0  0  0  0  0  0  0  0
   -2.9499    4.2246    0.0000 Cl  0  0  0  0  0  0  0  0  0  0  0  0
   -2.1470    1.7537    0.0000 N   0  0  0  0  0  0  0  0  0  0  0  0
   -1.0323    0.7500    0.0000 C   0  0  0  0  0  0  0  0  0  0  0  0
    0.3943    1.2135    0.0000 C   0  0  0  0  0  0  0  0  0  0  0  0
    1.2760    0.0000    0.0000 N   0  0  0  0  0  0  0  0  0  0  0  0
    0.3943   -1.2135    0.0000 C   0  0  0  0  0  0  0  0  0  0  0  0
   -1.0323   -0.7500    0.0000 N   0  0  0  0  0  0  0  0  0  0  0  0
   -2.2458   -1.6317    0.0000 C   0  0  0  0  0  0  0  0  0  0  0  0
   -3.6724   -1.1682    0.0000 C   0  0  0  0  0  0  0  0  0  0  0  0
   -4.1359    0.2584    0.0000 O   0  0  0  0  0  0  0  0  0  0  0  0
   -4.5541   -2.3817    0.0000 C   0  0  0  0  0  0  0  0  0  0  0  0
   -6.0541   -2.3817    0.0000 O   0  0  0  0  0  0  0  0  0  0  0  0
   -3.6724   -3.5952    0.0000 C   0  0  0  0  0  0  0  0  0  0  0  0
   -4.7871   -4.5989    0.0000 C   0  0  0  0  0  0  0  0  0  0  0  0
   -4.4752   -6.0661    0.0000 O   0  0  0  0  0  0  0  0  0  0  0  0
   -2.5577   -4.5989    0.0000 C   0  0  0  0  0  0  0  0  0  0  0  0
   -2.2458   -3.1317    0.0000 C   0  0  0  0  0  0  0  0  0  0  0  0
  1  2  1  0
  2  3  1  0
  3  4  2  0
  4  5  1  0
  5  6  1  0
  5  7  2  0
  7  8  1  0
  8  9  2  0
  9 10  1  0
 10 11  2  0
 11 12  1  0
 13 12  1  6
 13 14  1  0
 14 15  1  1
 14 16  1  0
 16 17  1  1
 16 18  1  0
 18 19  1  6
 19 20  1  0
 18 21  1  0
 22 21  1  1
  9  3  1  0
 22 13  1  0
 12  8  1  0
 22 18  1  0
M  END
>  <assay_chembl_id>  (570) 
CHEMBL3863860

>  <assay_description>  (570) 
Displacement of [3H]lysergic from human 5-HT2BR expressed in HEK cell membranes incubated in dark for 90 mins by microbeta scintillation counting method

>  <parent_molecule_chembl_id>  (570) 
CHEMBL286739

>  <canonical_smiles>  (570) 
CNc1nc(Cl)nc2c1ncn2[C@H]1[C@H](O)[C@H](O)[C@]2(CO)C[C@H]12

>  <standard_type>  (570) 
Ki

>  <standard_relation>  (570) 
=

>  <standard_value>  (570) 
6470.0

>  <standard_units>  (570) 
nM

>  <target_pref_name>  (570) 
Serotonin 2b (5-HT2b) receptor

>  <target_chembl_id>  (570) 
CHEMBL1833

>  <target_organism>  (570) 
Homo sapiens

>  <pchembl_median>  (570) 
6.5

$$$$
CHEMBL3923870
     RDKit          2D

 28 33  0  0  0  0  0  0  0  0999 V2000
    4.3863    6.1307    0.0000 O   0  0  0  0  0  0  0  0  0  0  0  0
    2.8945    5.9740    0.0000 C   0  0  0  0  0  0  0  0  0  0  0  0
    2.2844    4.6036    0.0000 C   0  0  0  0  0  0  0  0  0  0  0  0
    3.5834    3.8536    0.0000 C   0  0  0  0  0  0  0  0  0  0  0  0
    2.2844    3.1036    0.0000 C   0  0  0  0  0  0  0  0  0  0  0  0
    0.8578    2.6401    0.0000 C   0  0  0  0  0  0  0  0  0  0  0  0
    0.3943    1.2135    0.0000 N   0  0  0  0  0  0  0  0  0  0  0  0
    1.2760    0.0000    0.0000 C   0  0  0  0  0  0  0  0  0  0  0  0
    0.3943   -1.2135    0.0000 N   0  0  0  0  0  0  0  0  0  0  0  0
   -1.0323   -0.7500    0.0000 C   0  0  0  0  0  0  0  0  0  0  0  0
   -2.3313   -1.5000    0.0000 C   0  0  0  0  0  0  0  0  0  0  0  0
   -2.3313   -3.0000    0.0000 N   0  0  0  0  0  0  0  0  0  0  0  0
   -3.6304   -3.7500    0.0000 C   0  0  0  0  0  0  0  0  0  0  0  0
   -3.6304   -5.2500    0.0000 C   0  0  0  0  0  0  0  0  0  0  0  0
   -2.8804   -6.5490    0.0000 C   0  0  0  0  0  0  0  0  0  0  0  0
   -4.3804   -6.5490    0.0000 C   0  0  0  0  0  0  0  0  0  0  0  0
   -4.9294   -3.0000    0.0000 C   0  0  0  0  0  0  0  0  0  0  0  0
   -6.4294   -3.0000    0.0000 C   0  0  0  0  0  0  0  0  0  0  0  0
   -5.6794   -1.7010    0.0000 C   0  0  0  0  0  0  0  0  0  0  0  0
   -3.6304   -0.7500    0.0000 N   0  0  0  0  0  0  0  0  0  0  0  0
   -3.6304    0.7500    0.0000 C   0  0  0  0  0  0  0  0  0  0  0  0
   -4.9294    1.5000    0.0000 Cl  0  0  0  0  0  0  0  0  0  0  0  0
   -2.3313    1.5000    0.0000 N   0  0  0  0  0  0  0  0  0  0  0  0
   -1.0323    0.7500    0.0000 C   0  0  0  0  0  0  0  0  0  0  0  0
   -0.0239    3.8536    0.0000 C   0  0  0  0  0  0  0  0  0  0  0  0
   -1.5239    3.8536    0.0000 O   0  0  0  0  0  0  0  0  0  0  0  0
    0.8578    5.0672    0.0000 C   0  0  0  0  0  0  0  0  0  0  0  0
    0.3943    6.4937    0.0000 O   0  0  0  0  0  0  0  0  0  0  0  0
  1  2  1  0
  3  2  1  1
  3  4  1  0
  5  4  1  6
  5  6  1  0
  6  7  1  1
  7  8  1  0
  8  9  2  0
  9 10  1  0
 10 11  2  0
 11 12  1  0
 12 13  1  0
 13 14  1  0
 14 15  1  0
 15 16  1  0
 13 17  1  0
 17 18  1  0
 18 19  1  0
 11 20  1  0
 20 21  2  0
 21 22  1  0
 21 23  1  0
 23 24  2  0
  6 25  1  0
 25 26  1  6
 25 27  1  0
 27 28  1  6
  5  3  1  0
 24  7  1  0
 27  3  1  0
 24 10  1  0
 16 14  1  0
 19 17  1  0
M  END
>  <assay_chembl_id>  (571) 
CHEMBL3863860

>  <assay_description>  (571) 
Displacement of [3H]lysergic from human 5-HT2BR expressed in HEK cell membranes incubated in dark for 90 mins by microbeta scintillation counting method

>  <parent_molecule_chembl_id>  (571) 
CHEMBL3923870

>  <canonical_smiles>  (571) 
OC[C@@]12C[C@@H]1[C@@H](n1cnc3c(NC(C4CC4)C4CC4)nc(Cl)nc31)[C@H](O)[C@@H]2O

>  <standard_type>  (571) 
Ki

>  <standard_relation>  (571) 
=

>  <standard_value>  (571) 
11.1

>  <standard_units>  (571) 
nM

>  <target_pref_name>  (571) 
Serotonin 2b (5-HT2b) receptor

>  <target_chembl_id>  (571) 
CHEMBL1833

>  <target_organism>  (571) 
Homo sapiens

>  <pchembl_median>  (571) 
8.6

$$$$
CHEMBL3904817
     RDKit          2D

 26 29  0  0  0  0  0  0  0  0999 V2000
    4.1831    6.5422    0.0000 C   0  0  0  0  0  0  0  0  0  0  0  0
    3.8712    5.0750    0.0000 C   0  0  0  0  0  0  0  0  0  0  0  0
    2.4446    4.6115    0.0000 C   0  0  0  0  0  0  0  0  0  0  0  0
    1.3299    5.6152    0.0000 C   0  0  0  0  0  0  0  0  0  0  0  0
    1.6418    7.0824    0.0000 C   0  0  0  0  0  0  0  0  0  0  0  0
    2.1328    3.1443    0.0000 N   0  0  0  0  0  0  0  0  0  0  0  0
    0.7062    2.6807    0.0000 C   0  0  0  0  0  0  0  0  0  0  0  0
   -0.4086    3.6844    0.0000 N   0  0  0  0  0  0  0  0  0  0  0  0
   -1.8351    3.2209    0.0000 C   0  0  0  0  0  0  0  0  0  0  0  0
   -2.9499    4.2246    0.0000 Cl  0  0  0  0  0  0  0  0  0  0  0  0
   -2.1470    1.7537    0.0000 N   0  0  0  0  0  0  0  0  0  0  0  0
   -1.0323    0.7500    0.0000 C   0  0  0  0  0  0  0  0  0  0  0  0
    0.3943    1.2135    0.0000 C   0  0  0  0  0  0  0  0  0  0  0  0
    1.2760    0.0000    0.0000 N   0  0  0  0  0  0  0  0  0  0  0  0
    0.3943   -1.2135    0.0000 C   0  0  0  0  0  0  0  0  0  0  0  0
   -1.0323   -0.7500    0.0000 N   0  0  0  0  0  0  0  0  0  0  0  0
   -2.2458   -1.6317    0.0000 C   0  0  0  0  0  0  0  0  0  0  0  0
   -3.6724   -1.1682    0.0000 C   0  0  0  0  0  0  0  0  0  0  0  0
   -4.1359    0.2584    0.0000 O   0  0  0  0  0  0  0  0  0  0  0  0
   -4.5541   -2.3817    0.0000 C   0  0  0  0  0  0  0  0  0  0  0  0
   -6.0541   -2.3817    0.0000 O   0  0  0  0  0  0  0  0  0  0  0  0
   -3.6724   -3.5952    0.0000 C   0  0  0  0  0  0  0  0  0  0  0  0
   -4.7871   -4.5989    0.0000 C   0  0  0  0  0  0  0  0  0  0  0  0
   -4.4752   -6.0661    0.0000 O   0  0  0  0  0  0  0  0  0  0  0  0
   -2.5577   -4.5989    0.0000 C   0  0  0  0  0  0  0  0  0  0  0  0
   -2.2458   -3.1317    0.0000 C   0  0  0  0  0  0  0  0  0  0  0  0
  1  2  1  0
  2  3  1  0
  3  4  1  0
  4  5  1  0
  3  6  1  0
  6  7  1  0
  7  8  2  0
  8  9  1  0
  9 10  1  0
  9 11  2  0
 11 12  1  0
 12 13  2  0
 13 14  1  0
 14 15  2  0
 15 16  1  0
 17 16  1  6
 17 18  1  0
 18 19  1  1
 18 20  1  0
 20 21  1  1
 20 22  1  0
 22 23  1  6
 23 24  1  0
 22 25  1  0
 26 25  1  1
 13  7  1  0
 26 17  1  0
 16 12  1  0
 26 22  1  0
M  END
>  <assay_chembl_id>  (572) 
CHEMBL3863860

>  <assay_description>  (572) 
Displacement of [3H]lysergic from human 5-HT2BR expressed in HEK cell membranes incubated in dark for 90 mins by microbeta scintillation counting method

>  <parent_molecule_chembl_id>  (572) 
CHEMBL3904817

>  <canonical_smiles>  (572) 
CCC(CC)Nc1nc(Cl)nc2c1ncn2[C@H]1[C@H](O)[C@H](O)[C@]2(CO)C[C@H]12

>  <standard_type>  (572) 
Ki

>  <standard_relation>  (572) 
=

>  <standard_value>  (572) 
476.0

>  <standard_units>  (572) 
nM

>  <target_pref_name>  (572) 
Serotonin 2b (5-HT2b) receptor

>  <target_chembl_id>  (572) 
CHEMBL1833

>  <target_organism>  (572) 
Homo sapiens

>  <pchembl_median>  (572) 
5.66

$$$$
CHEMBL3932820
     RDKit          2D

 27 31  0  0  0  0  0  0  0  0999 V2000
    4.1831    6.5422    0.0000 C   0  0  0  0  0  0  0  0  0  0  0  0
    3.8712    5.0750    0.0000 C   0  0  0  0  0  0  0  0  0  0  0  0
    2.4446    4.6115    0.0000 C   0  0  0  0  0  0  0  0  0  0  0  0
    2.1328    3.1443    0.0000 N   0  0  0  0  0  0  0  0  0  0  0  0
    0.7062    2.6807    0.0000 C   0  0  0  0  0  0  0  0  0  0  0  0
   -0.4086    3.6844    0.0000 N   0  0  0  0  0  0  0  0  0  0  0  0
   -1.8351    3.2209    0.0000 C   0  0  0  0  0  0  0  0  0  0  0  0
   -2.9499    4.2246    0.0000 Cl  0  0  0  0  0  0  0  0  0  0  0  0
   -2.1470    1.7537    0.0000 N   0  0  0  0  0  0  0  0  0  0  0  0
   -1.0323    0.7500    0.0000 C   0  0  0  0  0  0  0  0  0  0  0  0
    0.3943    1.2135    0.0000 C   0  0  0  0  0  0  0  0  0  0  0  0
    1.2760    0.0000    0.0000 N   0  0  0  0  0  0  0  0  0  0  0  0
    0.3943   -1.2135    0.0000 C   0  0  0  0  0  0  0  0  0  0  0  0
   -1.0323   -0.7500    0.0000 N   0  0  0  0  0  0  0  0  0  0  0  0
   -2.2458   -1.6317    0.0000 C   0  0  0  0  0  0  0  0  0  0  0  0
   -3.6724   -1.1682    0.0000 C   0  0  0  0  0  0  0  0  0  0  0  0
   -4.1359    0.2584    0.0000 O   0  0  0  0  0  0  0  0  0  0  0  0
   -4.5541   -2.3817    0.0000 C   0  0  0  0  0  0  0  0  0  0  0  0
   -6.0541   -2.3817    0.0000 O   0  0  0  0  0  0  0  0  0  0  0  0
   -3.6724   -3.5952    0.0000 C   0  0  0  0  0  0  0  0  0  0  0  0
   -4.7871   -4.5989    0.0000 C   0  0  0  0  0  0  0  0  0  0  0  0
   -4.4752   -6.0661    0.0000 O   0  0  0  0  0  0  0  0  0  0  0  0
   -2.5577   -4.5989    0.0000 C   0  0  0  0  0  0  0  0  0  0  0  0
   -2.2458   -3.1317    0.0000 C   0  0  0  0  0  0  0  0  0  0  0  0
    1.3299    5.6152    0.0000 C   0  0  0  0  0  0  0  0  0  0  0  0
   -0.1373    5.9271    0.0000 C   0  0  0  0  0  0  0  0  0  0  0  0
    0.8664    7.0418    0.0000 C   0  0  0  0  0  0  0  0  0  0  0  0
  1  2  1  0
  3  2  1  1
  3  4  1  0
  4  5  1  0
  5  6  2  0
  6  7  1  0
  7  8  1  0
  7  9  2  0
  9 10  1  0
 10 11  2  0
 11 12  1  0
 12 13  2  0
 13 14  1  0
 15 14  1  6
 15 16  1  0
 16 17  1  1
 16 18  1  0
 18 19  1  1
 18 20  1  0
 20 21  1  6
 21 22  1  0
 20 23  1  0
 24 23  1  1
  3 25  1  0
 25 26  1  0
 26 27  1  0
 11  5  1  0
 24 15  1  0
 27 25  1  0
 14 10  1  0
 24 20  1  0
M  END
>  <assay_chembl_id>  (573) 
CHEMBL3863860

>  <assay_description>  (573) 
Displacement of [3H]lysergic from human 5-HT2BR expressed in HEK cell membranes incubated in dark for 90 mins by microbeta scintillation counting method

>  <parent_molecule_chembl_id>  (573) 
CHEMBL3932820

>  <canonical_smiles>  (573) 
CC[C@@H](Nc1nc(Cl)nc2c1ncn2[C@H]1[C@H](O)[C@H](O)[C@]2(CO)C[C@H]12)C1CC1

>  <standard_type>  (573) 
Ki

>  <standard_relation>  (573) 
=

>  <standard_value>  (573) 
186.0

>  <standard_units>  (573) 
nM

>  <target_pref_name>  (573) 
Serotonin 2b (5-HT2b) receptor

>  <target_chembl_id>  (573) 
CHEMBL1833

>  <target_organism>  (573) 
Homo sapiens

>  <pchembl_median>  (573) 
8.1

$$$$
CHEMBL3976579
     RDKit          2D

 27 31  0  0  0  0  0  0  0  0999 V2000
    4.1831    6.5422    0.0000 C   0  0  0  0  0  0  0  0  0  0  0  0
    3.8712    5.0750    0.0000 C   0  0  0  0  0  0  0  0  0  0  0  0
    2.4446    4.6115    0.0000 C   0  0  0  0  0  0  0  0  0  0  0  0
    2.1328    3.1443    0.0000 N   0  0  0  0  0  0  0  0  0  0  0  0
    0.7062    2.6807    0.0000 C   0  0  0  0  0  0  0  0  0  0  0  0
   -0.4086    3.6844    0.0000 N   0  0  0  0  0  0  0  0  0  0  0  0
   -1.8351    3.2209    0.0000 C   0  0  0  0  0  0  0  0  0  0  0  0
   -2.9499    4.2246    0.0000 Cl  0  0  0  0  0  0  0  0  0  0  0  0
   -2.1470    1.7537    0.0000 N   0  0  0  0  0  0  0  0  0  0  0  0
   -1.0323    0.7500    0.0000 C   0  0  0  0  0  0  0  0  0  0  0  0
    0.3943    1.2135    0.0000 C   0  0  0  0  0  0  0  0  0  0  0  0
    1.2760    0.0000    0.0000 N   0  0  0  0  0  0  0  0  0  0  0  0
    0.3943   -1.2135    0.0000 C   0  0  0  0  0  0  0  0  0  0  0  0
   -1.0323   -0.7500    0.0000 N   0  0  0  0  0  0  0  0  0  0  0  0
   -2.2458   -1.6317    0.0000 C   0  0  0  0  0  0  0  0  0  0  0  0
   -3.6724   -1.1682    0.0000 C   0  0  0  0  0  0  0  0  0  0  0  0
   -4.1359    0.2584    0.0000 O   0  0  0  0  0  0  0  0  0  0  0  0
   -4.5541   -2.3817    0.0000 C   0  0  0  0  0  0  0  0  0  0  0  0
   -6.0541   -2.3817    0.0000 O   0  0  0  0  0  0  0  0  0  0  0  0
   -3.6724   -3.5952    0.0000 C   0  0  0  0  0  0  0  0  0  0  0  0
   -4.7871   -4.5989    0.0000 C   0  0  0  0  0  0  0  0  0  0  0  0
   -4.4752   -6.0661    0.0000 O   0  0  0  0  0  0  0  0  0  0  0  0
   -2.5577   -4.5989    0.0000 C   0  0  0  0  0  0  0  0  0  0  0  0
   -2.2458   -3.1317    0.0000 C   0  0  0  0  0  0  0  0  0  0  0  0
    1.3299    5.6152    0.0000 C   0  0  0  0  0  0  0  0  0  0  0  0
   -0.1373    5.9271    0.0000 C   0  0  0  0  0  0  0  0  0  0  0  0
    0.8664    7.0418    0.0000 C   0  0  0  0  0  0  0  0  0  0  0  0
  1  2  1  0
  3  2  1  6
  3  4  1  0
  4  5  1  0
  5  6  2  0
  6  7  1  0
  7  8  1  0
  7  9  2  0
  9 10  1  0
 10 11  2  0
 11 12  1  0
 12 13  2  0
 13 14  1  0
 15 14  1  6
 15 16  1  0
 16 17  1  1
 16 18  1  0
 18 19  1  1
 18 20  1  0
 20 21  1  6
 21 22  1  0
 20 23  1  0
 24 23  1  1
  3 25  1  0
 25 26  1  0
 26 27  1  0
 11  5  1  0
 24 15  1  0
 27 25  1  0
 14 10  1  0
 24 20  1  0
M  END
>  <assay_chembl_id>  (574) 
CHEMBL3863860

>  <assay_description>  (574) 
Displacement of [3H]lysergic from human 5-HT2BR expressed in HEK cell membranes incubated in dark for 90 mins by microbeta scintillation counting method

>  <parent_molecule_chembl_id>  (574) 
CHEMBL3976579

>  <canonical_smiles>  (574) 
CC[C@H](Nc1nc(Cl)nc2c1ncn2[C@H]1[C@H](O)[C@H](O)[C@]2(CO)C[C@H]12)C1CC1

>  <standard_type>  (574) 
Ki

>  <standard_relation>  (574) 
=

>  <standard_value>  (574) 
73.0

>  <standard_units>  (574) 
nM

>  <target_pref_name>  (574) 
Serotonin 2b (5-HT2b) receptor

>  <target_chembl_id>  (574) 
CHEMBL1833

>  <target_organism>  (574) 
Homo sapiens

>  <pchembl_median>  (574) 
8.77

$$$$
CHEMBL3905850
     RDKit          2D

 28 32  0  0  0  0  0  0  0  0999 V2000
    4.1831    6.5422    0.0000 C   0  0  0  0  0  0  0  0  0  0  0  0
    3.8712    5.0750    0.0000 C   0  0  0  0  0  0  0  0  0  0  0  0
    4.9859    4.0713    0.0000 C   0  0  0  0  0  0  0  0  0  0  0  0
    2.4446    4.6115    0.0000 C   0  0  0  0  0  0  0  0  0  0  0  0
    2.1328    3.1443    0.0000 N   0  0  0  0  0  0  0  0  0  0  0  0
    0.7062    2.6807    0.0000 C   0  0  0  0  0  0  0  0  0  0  0  0
   -0.4086    3.6844    0.0000 N   0  0  0  0  0  0  0  0  0  0  0  0
   -1.8351    3.2209    0.0000 C   0  0  0  0  0  0  0  0  0  0  0  0
   -2.9499    4.2246    0.0000 Cl  0  0  0  0  0  0  0  0  0  0  0  0
   -2.1470    1.7537    0.0000 N   0  0  0  0  0  0  0  0  0  0  0  0
   -1.0323    0.7500    0.0000 C   0  0  0  0  0  0  0  0  0  0  0  0
    0.3943    1.2135    0.0000 C   0  0  0  0  0  0  0  0  0  0  0  0
    1.2760    0.0000    0.0000 N   0  0  0  0  0  0  0  0  0  0  0  0
    0.3943   -1.2135    0.0000 C   0  0  0  0  0  0  0  0  0  0  0  0
   -1.0323   -0.7500    0.0000 N   0  0  0  0  0  0  0  0  0  0  0  0
   -2.2458   -1.6317    0.0000 C   0  0  0  0  0  0  0  0  0  0  0  0
   -3.6724   -1.1682    0.0000 C   0  0  0  0  0  0  0  0  0  0  0  0
   -4.1359    0.2584    0.0000 O   0  0  0  0  0  0  0  0  0  0  0  0
   -4.5541   -2.3817    0.0000 C   0  0  0  0  0  0  0  0  0  0  0  0
   -6.0541   -2.3817    0.0000 O   0  0  0  0  0  0  0  0  0  0  0  0
   -3.6724   -3.5952    0.0000 C   0  0  0  0  0  0  0  0  0  0  0  0
   -4.7871   -4.5989    0.0000 C   0  0  0  0  0  0  0  0  0  0  0  0
   -4.4752   -6.0661    0.0000 O   0  0  0  0  0  0  0  0  0  0  0  0
   -2.5577   -4.5989    0.0000 C   0  0  0  0  0  0  0  0  0  0  0  0
   -2.2458   -3.1317    0.0000 C   0  0  0  0  0  0  0  0  0  0  0  0
    1.3299    5.6152    0.0000 C   0  0  0  0  0  0  0  0  0  0  0  0
   -0.1373    5.9271    0.0000 C   0  0  0  0  0  0  0  0  0  0  0  0
    0.8664    7.0418    0.0000 C   0  0  0  0  0  0  0  0  0  0  0  0
  1  2  1  0
  2  3  1  0
  2  4  1  0
  4  5  1  1
  5  6  1  0
  6  7  2  0
  7  8  1  0
  8  9  1  0
  8 10  2  0
 10 11  1  0
 11 12  2  0
 12 13  1  0
 13 14  2  0
 14 15  1  0
 16 15  1  6
 16 17  1  0
 17 18  1  1
 17 19  1  0
 19 20  1  1
 19 21  1  0
 21 22  1  6
 22 23  1  0
 21 24  1  0
 25 24  1  1
  4 26  1  0
 26 27  1  0
 27 28  1  0
 12  6  1  0
 25 16  1  0
 28 26  1  0
 15 11  1  0
 25 21  1  0
M  END
>  <assay_chembl_id>  (575) 
CHEMBL3863860

>  <assay_description>  (575) 
Displacement of [3H]lysergic from human 5-HT2BR expressed in HEK cell membranes incubated in dark for 90 mins by microbeta scintillation counting method

>  <parent_molecule_chembl_id>  (575) 
CHEMBL3905850

>  <canonical_smiles>  (575) 
CC(C)[C@@H](Nc1nc(Cl)nc2c1ncn2[C@H]1[C@H](O)[C@H](O)[C@]2(CO)C[C@H]12)C1CC1

>  <standard_type>  (575) 
Ki

>  <standard_relation>  (575) 
=

>  <standard_value>  (575) 
163.0

>  <standard_units>  (575) 
nM

>  <target_pref_name>  (575) 
Serotonin 2b (5-HT2b) receptor

>  <target_chembl_id>  (575) 
CHEMBL1833

>  <target_organism>  (575) 
Homo sapiens

>  <pchembl_median>  (575) 
7.78

$$$$
CHEMBL3984645
     RDKit          2D

 28 32  0  0  0  0  0  0  0  0999 V2000
    4.1831    6.5422    0.0000 C   0  0  0  0  0  0  0  0  0  0  0  0
    3.8712    5.0750    0.0000 C   0  0  0  0  0  0  0  0  0  0  0  0
    4.9859    4.0713    0.0000 C   0  0  0  0  0  0  0  0  0  0  0  0
    2.4446    4.6115    0.0000 C   0  0  0  0  0  0  0  0  0  0  0  0
    2.1328    3.1443    0.0000 N   0  0  0  0  0  0  0  0  0  0  0  0
    0.7062    2.6807    0.0000 C   0  0  0  0  0  0  0  0  0  0  0  0
   -0.4086    3.6844    0.0000 N   0  0  0  0  0  0  0  0  0  0  0  0
   -1.8351    3.2209    0.0000 C   0  0  0  0  0  0  0  0  0  0  0  0
   -2.9499    4.2246    0.0000 Cl  0  0  0  0  0  0  0  0  0  0  0  0
   -2.1470    1.7537    0.0000 N   0  0  0  0  0  0  0  0  0  0  0  0
   -1.0323    0.7500    0.0000 C   0  0  0  0  0  0  0  0  0  0  0  0
    0.3943    1.2135    0.0000 C   0  0  0  0  0  0  0  0  0  0  0  0
    1.2760    0.0000    0.0000 N   0  0  0  0  0  0  0  0  0  0  0  0
    0.3943   -1.2135    0.0000 C   0  0  0  0  0  0  0  0  0  0  0  0
   -1.0323   -0.7500    0.0000 N   0  0  0  0  0  0  0  0  0  0  0  0
   -2.2458   -1.6317    0.0000 C   0  0  0  0  0  0  0  0  0  0  0  0
   -3.6724   -1.1682    0.0000 C   0  0  0  0  0  0  0  0  0  0  0  0
   -4.1359    0.2584    0.0000 O   0  0  0  0  0  0  0  0  0  0  0  0
   -4.5541   -2.3817    0.0000 C   0  0  0  0  0  0  0  0  0  0  0  0
   -6.0541   -2.3817    0.0000 O   0  0  0  0  0  0  0  0  0  0  0  0
   -3.6724   -3.5952    0.0000 C   0  0  0  0  0  0  0  0  0  0  0  0
   -4.7871   -4.5989    0.0000 C   0  0  0  0  0  0  0  0  0  0  0  0
   -4.4752   -6.0661    0.0000 O   0  0  0  0  0  0  0  0  0  0  0  0
   -2.5577   -4.5989    0.0000 C   0  0  0  0  0  0  0  0  0  0  0  0
   -2.2458   -3.1317    0.0000 C   0  0  0  0  0  0  0  0  0  0  0  0
    1.3299    5.6152    0.0000 C   0  0  0  0  0  0  0  0  0  0  0  0
   -0.1373    5.9271    0.0000 C   0  0  0  0  0  0  0  0  0  0  0  0
    0.8664    7.0418    0.0000 C   0  0  0  0  0  0  0  0  0  0  0  0
  1  2  1  0
  2  3  1  0
  2  4  1  0
  4  5  1  6
  5  6  1  0
  6  7  2  0
  7  8  1  0
  8  9  1  0
  8 10  2  0
 10 11  1  0
 11 12  2  0
 12 13  1  0
 13 14  2  0
 14 15  1  0
 16 15  1  6
 16 17  1  0
 17 18  1  1
 17 19  1  0
 19 20  1  1
 19 21  1  0
 21 22  1  6
 22 23  1  0
 21 24  1  0
 25 24  1  1
  4 26  1  0
 26 27  1  0
 27 28  1  0
 12  6  1  0
 25 16  1  0
 28 26  1  0
 15 11  1  0
 25 21  1  0
M  END
>  <assay_chembl_id>  (576) 
CHEMBL3863860

>  <assay_description>  (576) 
Displacement of [3H]lysergic from human 5-HT2BR expressed in HEK cell membranes incubated in dark for 90 mins by microbeta scintillation counting method

>  <parent_molecule_chembl_id>  (576) 
CHEMBL3984645

>  <canonical_smiles>  (576) 
CC(C)[C@H](Nc1nc(Cl)nc2c1ncn2[C@H]1[C@H](O)[C@H](O)[C@]2(CO)C[C@H]12)C1CC1

>  <standard_type>  (576) 
Ki

>  <standard_relation>  (576) 
=

>  <standard_value>  (576) 
163.0

>  <standard_units>  (576) 
nM

>  <target_pref_name>  (576) 
Serotonin 2b (5-HT2b) receptor

>  <target_chembl_id>  (576) 
CHEMBL1833

>  <target_organism>  (576) 
Homo sapiens

>  <pchembl_median>  (576) 
6.75

$$$$
CHEMBL3914843
     RDKit          2D

 29 34  0  0  0  0  0  0  0  0999 V2000
    4.3863    6.1307    0.0000 O   0  0  0  0  0  0  0  0  0  0  0  0
    2.8945    5.9740    0.0000 C   0  0  0  0  0  0  0  0  0  0  0  0
    2.2844    4.6036    0.0000 C   0  0  0  0  0  0  0  0  0  0  0  0
    3.5834    3.8536    0.0000 C   0  0  0  0  0  0  0  0  0  0  0  0
    2.2844    3.1036    0.0000 C   0  0  0  0  0  0  0  0  0  0  0  0
    0.8578    2.6401    0.0000 C   0  0  0  0  0  0  0  0  0  0  0  0
    0.3943    1.2135    0.0000 N   0  0  0  0  0  0  0  0  0  0  0  0
    1.2760    0.0000    0.0000 C   0  0  0  0  0  0  0  0  0  0  0  0
    0.3943   -1.2135    0.0000 N   0  0  0  0  0  0  0  0  0  0  0  0
   -1.0323   -0.7500    0.0000 C   0  0  0  0  0  0  0  0  0  0  0  0
   -2.3313   -1.5000    0.0000 C   0  0  0  0  0  0  0  0  0  0  0  0
   -2.3313   -3.0000    0.0000 N   0  0  0  0  0  0  0  0  0  0  0  0
   -3.6304   -3.7500    0.0000 C   0  0  0  0  0  0  0  0  0  0  0  0
   -3.6304   -5.2500    0.0000 C   0  0  0  0  0  0  0  0  0  0  0  0
   -4.6910   -6.3107    0.0000 C   0  0  0  0  0  0  0  0  0  0  0  0
   -3.6304   -7.3713    0.0000 C   0  0  0  0  0  0  0  0  0  0  0  0
   -2.5697   -6.3107    0.0000 C   0  0  0  0  0  0  0  0  0  0  0  0
   -4.9294   -3.0000    0.0000 C   0  0  0  0  0  0  0  0  0  0  0  0
   -6.4294   -3.0000    0.0000 C   0  0  0  0  0  0  0  0  0  0  0  0
   -5.6794   -1.7010    0.0000 C   0  0  0  0  0  0  0  0  0  0  0  0
   -3.6304   -0.7500    0.0000 N   0  0  0  0  0  0  0  0  0  0  0  0
   -3.6304    0.7500    0.0000 C   0  0  0  0  0  0  0  0  0  0  0  0
   -4.9294    1.5000    0.0000 Cl  0  0  0  0  0  0  0  0  0  0  0  0
   -2.3313    1.5000    0.0000 N   0  0  0  0  0  0  0  0  0  0  0  0
   -1.0323    0.7500    0.0000 C   0  0  0  0  0  0  0  0  0  0  0  0
   -0.0239    3.8536    0.0000 C   0  0  0  0  0  0  0  0  0  0  0  0
   -1.5239    3.8536    0.0000 O   0  0  0  0  0  0  0  0  0  0  0  0
    0.8578    5.0672    0.0000 C   0  0  0  0  0  0  0  0  0  0  0  0
    0.3943    6.4937    0.0000 O   0  0  0  0  0  0  0  0  0  0  0  0
  1  2  1  0
  3  2  1  1
  3  4  1  0
  5  4  1  6
  5  6  1  0
  6  7  1  1
  7  8  1  0
  8  9  2  0
  9 10  1  0
 10 11  2  0
 11 12  1  0
 13 12  1  6
 13 14  1  0
 14 15  1  0
 15 16  1  0
 16 17  1  0
 13 18  1  0
 18 19  1  0
 19 20  1  0
 11 21  1  0
 21 22  2  0
 22 23  1  0
 22 24  1  0
 24 25  2  0
  6 26  1  0
 26 27  1  6
 26 28  1  0
 28 29  1  6
  5  3  1  0
 25  7  1  0
 28  3  1  0
 25 10  1  0
 17 14  1  0
 20 18  1  0
M  END
>  <assay_chembl_id>  (577) 
CHEMBL3863860

>  <assay_description>  (577) 
Displacement of [3H]lysergic from human 5-HT2BR expressed in HEK cell membranes incubated in dark for 90 mins by microbeta scintillation counting method

>  <parent_molecule_chembl_id>  (577) 
CHEMBL3914843

>  <canonical_smiles>  (577) 
OC[C@@]12C[C@@H]1[C@@H](n1cnc3c(N[C@H](C4CCC4)C4CC4)nc(Cl)nc31)[C@H](O)[C@@H]2O

>  <standard_type>  (577) 
Ki

>  <standard_relation>  (577) 
=

>  <standard_value>  (577) 
34.0

>  <standard_units>  (577) 
nM

>  <target_pref_name>  (577) 
Serotonin 2b (5-HT2b) receptor

>  <target_chembl_id>  (577) 
CHEMBL1833

>  <target_organism>  (577) 
Homo sapiens

>  <pchembl_median>  (577) 
8.35

$$$$
CHEMBL3931747
     RDKit          2D

 29 34  0  0  0  0  0  0  0  0999 V2000
    4.3863    6.1307    0.0000 O   0  0  0  0  0  0  0  0  0  0  0  0
    2.8945    5.9740    0.0000 C   0  0  0  0  0  0  0  0  0  0  0  0
    2.2844    4.6036    0.0000 C   0  0  0  0  0  0  0  0  0  0  0  0
    3.5834    3.8536    0.0000 C   0  0  0  0  0  0  0  0  0  0  0  0
    2.2844    3.1036    0.0000 C   0  0  0  0  0  0  0  0  0  0  0  0
    0.8578    2.6401    0.0000 C   0  0  0  0  0  0  0  0  0  0  0  0
    0.3943    1.2135    0.0000 N   0  0  0  0  0  0  0  0  0  0  0  0
    1.2760    0.0000    0.0000 C   0  0  0  0  0  0  0  0  0  0  0  0
    0.3943   -1.2135    0.0000 N   0  0  0  0  0  0  0  0  0  0  0  0
   -1.0323   -0.7500    0.0000 C   0  0  0  0  0  0  0  0  0  0  0  0
   -2.3313   -1.5000    0.0000 C   0  0  0  0  0  0  0  0  0  0  0  0
   -2.3313   -3.0000    0.0000 N   0  0  0  0  0  0  0  0  0  0  0  0
   -3.6304   -3.7500    0.0000 C   0  0  0  0  0  0  0  0  0  0  0  0
   -3.6304   -5.2500    0.0000 C   0  0  0  0  0  0  0  0  0  0  0  0
   -4.6910   -6.3107    0.0000 C   0  0  0  0  0  0  0  0  0  0  0  0
   -3.6304   -7.3713    0.0000 C   0  0  0  0  0  0  0  0  0  0  0  0
   -2.5697   -6.3107    0.0000 C   0  0  0  0  0  0  0  0  0  0  0  0
   -4.9294   -3.0000    0.0000 C   0  0  0  0  0  0  0  0  0  0  0  0
   -6.4294   -3.0000    0.0000 C   0  0  0  0  0  0  0  0  0  0  0  0
   -5.6794   -1.7010    0.0000 C   0  0  0  0  0  0  0  0  0  0  0  0
   -3.6304   -0.7500    0.0000 N   0  0  0  0  0  0  0  0  0  0  0  0
   -3.6304    0.7500    0.0000 C   0  0  0  0  0  0  0  0  0  0  0  0
   -4.9294    1.5000    0.0000 Cl  0  0  0  0  0  0  0  0  0  0  0  0
   -2.3313    1.5000    0.0000 N   0  0  0  0  0  0  0  0  0  0  0  0
   -1.0323    0.7500    0.0000 C   0  0  0  0  0  0  0  0  0  0  0  0
   -0.0239    3.8536    0.0000 C   0  0  0  0  0  0  0  0  0  0  0  0
   -1.5239    3.8536    0.0000 O   0  0  0  0  0  0  0  0  0  0  0  0
    0.8578    5.0672    0.0000 C   0  0  0  0  0  0  0  0  0  0  0  0
    0.3943    6.4937    0.0000 O   0  0  0  0  0  0  0  0  0  0  0  0
  1  2  1  0
  3  2  1  1
  3  4  1  0
  5  4  1  6
  5  6  1  0
  6  7  1  1
  7  8  1  0
  8  9  2  0
  9 10  1  0
 10 11  2  0
 11 12  1  0
 13 12  1  1
 13 14  1  0
 14 15  1  0
 15 16  1  0
 16 17  1  0
 13 18  1  0
 18 19  1  0
 19 20  1  0
 11 21  1  0
 21 22  2  0
 22 23  1  0
 22 24  1  0
 24 25  2  0
  6 26  1  0
 26 27  1  6
 26 28  1  0
 28 29  1  6
  5  3  1  0
 25  7  1  0
 28  3  1  0
 25 10  1  0
 17 14  1  0
 20 18  1  0
M  END
>  <assay_chembl_id>  (578) 
CHEMBL3863860

>  <assay_description>  (578) 
Displacement of [3H]lysergic from human 5-HT2BR expressed in HEK cell membranes incubated in dark for 90 mins by microbeta scintillation counting method

>  <parent_molecule_chembl_id>  (578) 
CHEMBL3931747

>  <canonical_smiles>  (578) 
OC[C@@]12C[C@@H]1[C@@H](n1cnc3c(N[C@@H](C4CCC4)C4CC4)nc(Cl)nc31)[C@H](O)[C@@H]2O

>  <standard_type>  (578) 
Ki

>  <standard_relation>  (578) 
=

>  <standard_value>  (578) 
77.0

>  <standard_units>  (578) 
nM

>  <target_pref_name>  (578) 
Serotonin 2b (5-HT2b) receptor

>  <target_chembl_id>  (578) 
CHEMBL1833

>  <target_organism>  (578) 
Homo sapiens

>  <pchembl_median>  (578) 
6.25

$$$$
CHEMBL3959210
     RDKit          2D

 23 26  0  0  0  0  0  0  0  0999 V2000
    2.4446    4.6115    0.0000 C   0  0  0  0  0  0  0  0  0  0  0  0
    2.1328    3.1443    0.0000 N   0  0  0  0  0  0  0  0  0  0  0  0
    3.2475    2.1406    0.0000 C   0  0  0  0  0  0  0  0  0  0  0  0
    0.7062    2.6807    0.0000 C   0  0  0  0  0  0  0  0  0  0  0  0
   -0.4086    3.6844    0.0000 N   0  0  0  0  0  0  0  0  0  0  0  0
   -1.8351    3.2209    0.0000 C   0  0  0  0  0  0  0  0  0  0  0  0
   -2.9499    4.2246    0.0000 Cl  0  0  0  0  0  0  0  0  0  0  0  0
   -2.1470    1.7537    0.0000 N   0  0  0  0  0  0  0  0  0  0  0  0
   -1.0323    0.7500    0.0000 C   0  0  0  0  0  0  0  0  0  0  0  0
    0.3943    1.2135    0.0000 C   0  0  0  0  0  0  0  0  0  0  0  0
    1.2760    0.0000    0.0000 N   0  0  0  0  0  0  0  0  0  0  0  0
    0.3943   -1.2135    0.0000 C   0  0  0  0  0  0  0  0  0  0  0  0
   -1.0323   -0.7500    0.0000 N   0  0  0  0  0  0  0  0  0  0  0  0
   -2.2458   -1.6317    0.0000 C   0  0  0  0  0  0  0  0  0  0  0  0
   -3.6724   -1.1682    0.0000 C   0  0  0  0  0  0  0  0  0  0  0  0
   -4.1359    0.2584    0.0000 O   0  0  0  0  0  0  0  0  0  0  0  0
   -4.5541   -2.3817    0.0000 C   0  0  0  0  0  0  0  0  0  0  0  0
   -6.0541   -2.3817    0.0000 O   0  0  0  0  0  0  0  0  0  0  0  0
   -3.6724   -3.5952    0.0000 C   0  0  0  0  0  0  0  0  0  0  0  0
   -4.7871   -4.5989    0.0000 C   0  0  0  0  0  0  0  0  0  0  0  0
   -4.4752   -6.0661    0.0000 O   0  0  0  0  0  0  0  0  0  0  0  0
   -2.5577   -4.5989    0.0000 C   0  0  0  0  0  0  0  0  0  0  0  0
   -2.2458   -3.1317    0.0000 C   0  0  0  0  0  0  0  0  0  0  0  0
  1  2  1  0
  2  3  1  0
  2  4  1  0
  4  5  2  0
  5  6  1  0
  6  7  1  0
  6  8  2  0
  8  9  1  0
  9 10  2  0
 10 11  1  0
 11 12  2  0
 12 13  1  0
 14 13  1  6
 14 15  1  0
 15 16  1  1
 15 17  1  0
 17 18  1  1
 17 19  1  0
 19 20  1  6
 20 21  1  0
 19 22  1  0
 23 22  1  1
 10  4  1  0
 23 14  1  0
 13  9  1  0
 23 19  1  0
M  END
>  <assay_chembl_id>  (579) 
CHEMBL3863860

>  <assay_description>  (579) 
Displacement of [3H]lysergic from human 5-HT2BR expressed in HEK cell membranes incubated in dark for 90 mins by microbeta scintillation counting method

>  <parent_molecule_chembl_id>  (579) 
CHEMBL3959210

>  <canonical_smiles>  (579) 
CN(C)c1nc(Cl)nc2c1ncn2[C@H]1[C@H](O)[C@H](O)[C@]2(CO)C[C@H]12

>  <standard_type>  (579) 
Ki

>  <standard_relation>  (579) 
=

>  <standard_value>  (579) 
4800.0

>  <standard_units>  (579) 
nM

>  <target_pref_name>  (579) 
Serotonin 2b (5-HT2b) receptor

>  <target_chembl_id>  (579) 
CHEMBL1833

>  <target_organism>  (579) 
Homo sapiens

>  <pchembl_median>  (579) 
6.14

$$$$
CHEMBL3941738
     RDKit          2D

 25 28  0  0  0  0  0  0  0  0999 V2000
    4.9964    7.5011    0.0000 C   0  0  0  0  0  0  0  0  0  0  0  0
    4.3863    6.1307    0.0000 N   0  0  0  0  0  0  0  0  0  0  0  0
    2.8945    5.9740    0.0000 C   0  0  0  0  0  0  0  0  0  0  0  0
    2.0128    7.1875    0.0000 O   0  0  0  0  0  0  0  0  0  0  0  0
    2.2844    4.6036    0.0000 C   0  0  0  0  0  0  0  0  0  0  0  0
    3.5834    3.8536    0.0000 C   0  0  0  0  0  0  0  0  0  0  0  0
    2.2844    3.1036    0.0000 C   0  0  0  0  0  0  0  0  0  0  0  0
    0.8578    2.6401    0.0000 C   0  0  0  0  0  0  0  0  0  0  0  0
    0.3943    1.2135    0.0000 N   0  0  0  0  0  0  0  0  0  0  0  0
    1.2760    0.0000    0.0000 C   0  0  0  0  0  0  0  0  0  0  0  0
    0.3943   -1.2135    0.0000 N   0  0  0  0  0  0  0  0  0  0  0  0
   -1.0323   -0.7500    0.0000 C   0  0  0  0  0  0  0  0  0  0  0  0
   -2.3313   -1.5000    0.0000 C   0  0  0  0  0  0  0  0  0  0  0  0
   -2.3313   -3.0000    0.0000 N   0  0  0  0  0  0  0  0  0  0  0  0
   -3.6304   -3.7500    0.0000 C   0  0  0  0  0  0  0  0  0  0  0  0
   -1.0323   -3.7500    0.0000 C   0  0  0  0  0  0  0  0  0  0  0  0
   -3.6304   -0.7500    0.0000 N   0  0  0  0  0  0  0  0  0  0  0  0
   -3.6304    0.7500    0.0000 C   0  0  0  0  0  0  0  0  0  0  0  0
   -4.9294    1.5000    0.0000 Cl  0  0  0  0  0  0  0  0  0  0  0  0
   -2.3313    1.5000    0.0000 N   0  0  0  0  0  0  0  0  0  0  0  0
   -1.0323    0.7500    0.0000 C   0  0  0  0  0  0  0  0  0  0  0  0
   -0.0239    3.8536    0.0000 C   0  0  0  0  0  0  0  0  0  0  0  0
   -1.5239    3.8536    0.0000 O   0  0  0  0  0  0  0  0  0  0  0  0
    0.8578    5.0672    0.0000 C   0  0  0  0  0  0  0  0  0  0  0  0
    0.3943    6.4937    0.0000 O   0  0  0  0  0  0  0  0  0  0  0  0
  1  2  1  0
  2  3  1  0
  3  4  2  0
  5  3  1  1
  5  6  1  0
  7  6  1  6
  7  8  1  0
  8  9  1  1
  9 10  1  0
 10 11  2  0
 11 12  1  0
 12 13  2  0
 13 14  1  0
 14 15  1  0
 14 16  1  0
 13 17  1  0
 17 18  2  0
 18 19  1  0
 18 20  1  0
 20 21  2  0
  8 22  1  0
 22 23  1  6
 22 24  1  0
 24 25  1  6
  7  5  1  0
 21  9  1  0
 24  5  1  0
 21 12  1  0
M  END
>  <assay_chembl_id>  (580) 
CHEMBL3863860

>  <assay_description>  (580) 
Displacement of [3H]lysergic from human 5-HT2BR expressed in HEK cell membranes incubated in dark for 90 mins by microbeta scintillation counting method

>  <parent_molecule_chembl_id>  (580) 
CHEMBL3941738

>  <canonical_smiles>  (580) 
CNC(=O)[C@@]12C[C@@H]1[C@@H](n1cnc3c(N(C)C)nc(Cl)nc31)[C@H](O)[C@@H]2O

>  <standard_type>  (580) 
Ki

>  <standard_relation>  (580) 
=

>  <standard_value>  (580) 
2100.0

>  <standard_units>  (580) 
nM

>  <target_pref_name>  (580) 
Serotonin 2b (5-HT2b) receptor

>  <target_chembl_id>  (580) 
CHEMBL1833

>  <target_organism>  (580) 
Homo sapiens

>  <pchembl_median>  (580) 
8.2

$$$$
CHEMBL3970041
     RDKit          2D

 30 35  0  0  0  0  0  0  0  0999 V2000
    4.9964    7.5011    0.0000 C   0  0  0  0  0  0  0  0  0  0  0  0
    4.3863    6.1307    0.0000 O   0  0  0  0  0  0  0  0  0  0  0  0
    2.8945    5.9740    0.0000 C   0  0  0  0  0  0  0  0  0  0  0  0
    2.0128    7.1875    0.0000 O   0  0  0  0  0  0  0  0  0  0  0  0
    2.2844    4.6036    0.0000 C   0  0  0  0  0  0  0  0  0  0  0  0
    3.5834    3.8536    0.0000 C   0  0  0  0  0  0  0  0  0  0  0  0
    2.2844    3.1036    0.0000 C   0  0  0  0  0  0  0  0  0  0  0  0
    0.8578    2.6401    0.0000 C   0  0  0  0  0  0  0  0  0  0  0  0
    0.3943    1.2135    0.0000 N   0  0  0  0  0  0  0  0  0  0  0  0
    1.2760    0.0000    0.0000 C   0  0  0  0  0  0  0  0  0  0  0  0
    0.3943   -1.2135    0.0000 N   0  0  0  0  0  0  0  0  0  0  0  0
   -1.0323   -0.7500    0.0000 C   0  0  0  0  0  0  0  0  0  0  0  0
   -2.3313   -1.5000    0.0000 C   0  0  0  0  0  0  0  0  0  0  0  0
   -2.3313   -3.0000    0.0000 N   0  0  0  0  0  0  0  0  0  0  0  0
   -3.6304   -3.7500    0.0000 C   0  0  0  0  0  0  0  0  0  0  0  0
   -3.6304   -5.2500    0.0000 C   0  0  0  0  0  0  0  0  0  0  0  0
   -2.8804   -6.5490    0.0000 C   0  0  0  0  0  0  0  0  0  0  0  0
   -4.3804   -6.5490    0.0000 C   0  0  0  0  0  0  0  0  0  0  0  0
   -4.9294   -3.0000    0.0000 C   0  0  0  0  0  0  0  0  0  0  0  0
   -6.4294   -3.0000    0.0000 C   0  0  0  0  0  0  0  0  0  0  0  0
   -5.6794   -1.7010    0.0000 C   0  0  0  0  0  0  0  0  0  0  0  0
   -3.6304   -0.7500    0.0000 N   0  0  0  0  0  0  0  0  0  0  0  0
   -3.6304    0.7500    0.0000 C   0  0  0  0  0  0  0  0  0  0  0  0
   -4.9294    1.5000    0.0000 Cl  0  0  0  0  0  0  0  0  0  0  0  0
   -2.3313    1.5000    0.0000 N   0  0  0  0  0  0  0  0  0  0  0  0
   -1.0323    0.7500    0.0000 C   0  0  0  0  0  0  0  0  0  0  0  0
   -0.0239    3.8536    0.0000 C   0  0  0  0  0  0  0  0  0  0  0  0
   -1.5239    3.8536    0.0000 O   0  0  0  0  0  0  0  0  0  0  0  0
    0.8578    5.0672    0.0000 C   0  0  0  0  0  0  0  0  0  0  0  0
    0.3943    6.4937    0.0000 O   0  0  0  0  0  0  0  0  0  0  0  0
  1  2  1  0
  2  3  1  0
  3  4  2  0
  5  3  1  1
  5  6  1  0
  7  6  1  6
  7  8  1  0
  8  9  1  1
  9 10  1  0
 10 11  2  0
 11 12  1  0
 12 13  2  0
 13 14  1  0
 14 15  1  0
 15 16  1  0
 16 17  1  0
 17 18  1  0
 15 19  1  0
 19 20  1  0
 20 21  1  0
 13 22  1  0
 22 23  2  0
 23 24  1  0
 23 25  1  0
 25 26  2  0
  8 27  1  0
 27 28  1  6
 27 29  1  0
 29 30  1  6
  7  5  1  0
 26  9  1  0
 29  5  1  0
 26 12  1  0
 18 16  1  0
 21 19  1  0
M  END
>  <assay_chembl_id>  (581) 
CHEMBL3863860

>  <assay_description>  (581) 
Displacement of [3H]lysergic from human 5-HT2BR expressed in HEK cell membranes incubated in dark for 90 mins by microbeta scintillation counting method

>  <parent_molecule_chembl_id>  (581) 
CHEMBL3970041

>  <canonical_smiles>  (581) 
COC(=O)[C@@]12C[C@@H]1[C@@H](n1cnc3c(NC(C4CC4)C4CC4)nc(Cl)nc31)[C@H](O)[C@@H]2O

>  <standard_type>  (581) 
Ki

>  <standard_relation>  (581) 
=

>  <standard_value>  (581) 
19.0

>  <standard_units>  (581) 
nM

>  <target_pref_name>  (581) 
Serotonin 2b (5-HT2b) receptor

>  <target_chembl_id>  (581) 
CHEMBL1833

>  <target_organism>  (581) 
Homo sapiens

>  <pchembl_median>  (581) 
8.47

$$$$
CHEMBL3956531
     RDKit          2D

 32 37  0  0  0  0  0  0  0  0999 V2000
    7.0983    9.0282    0.0000 C   0  0  0  0  0  0  0  0  0  0  0  0
    6.4882    7.6579    0.0000 C   0  0  0  0  0  0  0  0  0  0  0  0
    4.9964    7.5011    0.0000 C   0  0  0  0  0  0  0  0  0  0  0  0
    4.3863    6.1307    0.0000 O   0  0  0  0  0  0  0  0  0  0  0  0
    2.8945    5.9740    0.0000 C   0  0  0  0  0  0  0  0  0  0  0  0
    2.0128    7.1875    0.0000 O   0  0  0  0  0  0  0  0  0  0  0  0
    2.2844    4.6036    0.0000 C   0  0  0  0  0  0  0  0  0  0  0  0
    3.5834    3.8536    0.0000 C   0  0  0  0  0  0  0  0  0  0  0  0
    2.2844    3.1036    0.0000 C   0  0  0  0  0  0  0  0  0  0  0  0
    0.8578    2.6401    0.0000 C   0  0  0  0  0  0  0  0  0  0  0  0
    0.3943    1.2135    0.0000 N   0  0  0  0  0  0  0  0  0  0  0  0
    1.2760    0.0000    0.0000 C   0  0  0  0  0  0  0  0  0  0  0  0
    0.3943   -1.2135    0.0000 N   0  0  0  0  0  0  0  0  0  0  0  0
   -1.0323   -0.7500    0.0000 C   0  0  0  0  0  0  0  0  0  0  0  0
   -2.3313   -1.5000    0.0000 C   0  0  0  0  0  0  0  0  0  0  0  0
   -2.3313   -3.0000    0.0000 N   0  0  0  0  0  0  0  0  0  0  0  0
   -3.6304   -3.7500    0.0000 C   0  0  0  0  0  0  0  0  0  0  0  0
   -3.6304   -5.2500    0.0000 C   0  0  0  0  0  0  0  0  0  0  0  0
   -2.8804   -6.5490    0.0000 C   0  0  0  0  0  0  0  0  0  0  0  0
   -4.3804   -6.5490    0.0000 C   0  0  0  0  0  0  0  0  0  0  0  0
   -4.9294   -3.0000    0.0000 C   0  0  0  0  0  0  0  0  0  0  0  0
   -6.4294   -3.0000    0.0000 C   0  0  0  0  0  0  0  0  0  0  0  0
   -5.6794   -1.7010    0.0000 C   0  0  0  0  0  0  0  0  0  0  0  0
   -3.6304   -0.7500    0.0000 N   0  0  0  0  0  0  0  0  0  0  0  0
   -3.6304    0.7500    0.0000 C   0  0  0  0  0  0  0  0  0  0  0  0
   -4.9294    1.5000    0.0000 Cl  0  0  0  0  0  0  0  0  0  0  0  0
   -2.3313    1.5000    0.0000 N   0  0  0  0  0  0  0  0  0  0  0  0
   -1.0323    0.7500    0.0000 C   0  0  0  0  0  0  0  0  0  0  0  0
   -0.0239    3.8536    0.0000 C   0  0  0  0  0  0  0  0  0  0  0  0
   -1.5239    3.8536    0.0000 O   0  0  0  0  0  0  0  0  0  0  0  0
    0.8578    5.0672    0.0000 C   0  0  0  0  0  0  0  0  0  0  0  0
    0.3943    6.4937    0.0000 O   0  0  0  0  0  0  0  0  0  0  0  0
  1  2  1  0
  2  3  1  0
  3  4  1  0
  4  5  1  0
  5  6  2  0
  7  5  1  1
  7  8  1  0
  9  8  1  6
  9 10  1  0
 10 11  1  1
 11 12  1  0
 12 13  2  0
 13 14  1  0
 14 15  2  0
 15 16  1  0
 16 17  1  0
 17 18  1  0
 18 19  1  0
 19 20  1  0
 17 21  1  0
 21 22  1  0
 22 23  1  0
 15 24  1  0
 24 25  2  0
 25 26  1  0
 25 27  1  0
 27 28  2  0
 10 29  1  0
 29 30  1  6
 29 31  1  0
 31 32  1  6
  9  7  1  0
 28 11  1  0
 31  7  1  0
 28 14  1  0
 20 18  1  0
 23 21  1  0
M  END
>  <assay_chembl_id>  (582) 
CHEMBL3863860

>  <assay_description>  (582) 
Displacement of [3H]lysergic from human 5-HT2BR expressed in HEK cell membranes incubated in dark for 90 mins by microbeta scintillation counting method

>  <parent_molecule_chembl_id>  (582) 
CHEMBL3956531

>  <canonical_smiles>  (582) 
CCCOC(=O)[C@@]12C[C@@H]1[C@@H](n1cnc3c(NC(C4CC4)C4CC4)nc(Cl)nc31)[C@H](O)[C@@H]2O

>  <standard_type>  (582) 
Ki

>  <standard_relation>  (582) 
=

>  <standard_value>  (582) 
45.0

>  <standard_units>  (582) 
nM

>  <target_pref_name>  (582) 
Serotonin 2b (5-HT2b) receptor

>  <target_chembl_id>  (582) 
CHEMBL1833

>  <target_organism>  (582) 
Homo sapiens

>  <pchembl_median>  (582) 
6.39

$$$$
CHEMBL3928983
     RDKit          2D

 29 34  0  0  0  0  0  0  0  0999 V2000
    2.0128    7.1875    0.0000 O   0  0  0  0  0  0  0  0  0  0  0  0
    2.8945    5.9740    0.0000 C   0  0  0  0  0  0  0  0  0  0  0  0
    4.3863    6.1307    0.0000 O   0  0  0  0  0  0  0  0  0  0  0  0
    2.2844    4.6036    0.0000 C   0  0  0  0  0  0  0  0  0  0  0  0
    3.5834    3.8536    0.0000 C   0  0  0  0  0  0  0  0  0  0  0  0
    2.2844    3.1036    0.0000 C   0  0  0  0  0  0  0  0  0  0  0  0
    0.8578    2.6401    0.0000 C   0  0  0  0  0  0  0  0  0  0  0  0
    0.3943    1.2135    0.0000 N   0  0  0  0  0  0  0  0  0  0  0  0
    1.2760    0.0000    0.0000 C   0  0  0  0  0  0  0  0  0  0  0  0
    0.3943   -1.2135    0.0000 N   0  0  0  0  0  0  0  0  0  0  0  0
   -1.0323   -0.7500    0.0000 C   0  0  0  0  0  0  0  0  0  0  0  0
   -2.3313   -1.5000    0.0000 C   0  0  0  0  0  0  0  0  0  0  0  0
   -2.3313   -3.0000    0.0000 N   0  0  0  0  0  0  0  0  0  0  0  0
   -3.6304   -3.7500    0.0000 C   0  0  0  0  0  0  0  0  0  0  0  0
   -3.6304   -5.2500    0.0000 C   0  0  0  0  0  0  0  0  0  0  0  0
   -2.8804   -6.5490    0.0000 C   0  0  0  0  0  0  0  0  0  0  0  0
   -4.3804   -6.5490    0.0000 C   0  0  0  0  0  0  0  0  0  0  0  0
   -4.9294   -3.0000    0.0000 C   0  0  0  0  0  0  0  0  0  0  0  0
   -6.4294   -3.0000    0.0000 C   0  0  0  0  0  0  0  0  0  0  0  0
   -5.6794   -1.7010    0.0000 C   0  0  0  0  0  0  0  0  0  0  0  0
   -3.6304   -0.7500    0.0000 N   0  0  0  0  0  0  0  0  0  0  0  0
   -3.6304    0.7500    0.0000 C   0  0  0  0  0  0  0  0  0  0  0  0
   -4.9294    1.5000    0.0000 Cl  0  0  0  0  0  0  0  0  0  0  0  0
   -2.3313    1.5000    0.0000 N   0  0  0  0  0  0  0  0  0  0  0  0
   -1.0323    0.7500    0.0000 C   0  0  0  0  0  0  0  0  0  0  0  0
   -0.0239    3.8536    0.0000 C   0  0  0  0  0  0  0  0  0  0  0  0
   -1.5239    3.8536    0.0000 O   0  0  0  0  0  0  0  0  0  0  0  0
    0.8578    5.0672    0.0000 C   0  0  0  0  0  0  0  0  0  0  0  0
    0.3943    6.4937    0.0000 O   0  0  0  0  0  0  0  0  0  0  0  0
  1  2  2  0
  2  3  1  0
  4  2  1  1
  4  5  1  0
  6  5  1  6
  6  7  1  0
  7  8  1  1
  8  9  1  0
  9 10  2  0
 10 11  1  0
 11 12  2  0
 12 13  1  0
 13 14  1  0
 14 15  1  0
 15 16  1  0
 16 17  1  0
 14 18  1  0
 18 19  1  0
 19 20  1  0
 12 21  1  0
 21 22  2  0
 22 23  1  0
 22 24  1  0
 24 25  2  0
  7 26  1  0
 26 27  1  6
 26 28  1  0
 28 29  1  6
  6  4  1  0
 25  8  1  0
 28  4  1  0
 25 11  1  0
 17 15  1  0
 20 18  1  0
M  END
>  <assay_chembl_id>  (583) 
CHEMBL3863860

>  <assay_description>  (583) 
Displacement of [3H]lysergic from human 5-HT2BR expressed in HEK cell membranes incubated in dark for 90 mins by microbeta scintillation counting method

>  <parent_molecule_chembl_id>  (583) 
CHEMBL3928983

>  <canonical_smiles>  (583) 
O=C(O)[C@@]12C[C@@H]1[C@@H](n1cnc3c(NC(C4CC4)C4CC4)nc(Cl)nc31)[C@H](O)[C@@H]2O

>  <standard_type>  (583) 
Ki

>  <standard_relation>  (583) 
=

>  <standard_value>  (583) 
1480.0

>  <standard_units>  (583) 
nM

>  <target_pref_name>  (583) 
Serotonin 2b (5-HT2b) receptor

>  <target_chembl_id>  (583) 
CHEMBL1833

>  <target_organism>  (583) 
Homo sapiens

>  <pchembl_median>  (583) 
5.56

$$$$
CHEMBL3967613
     RDKit          2D

 26 29  0  0  0  0  0  0  0  0999 V2000
    6.4882    7.6579    0.0000 C   0  0  0  0  0  0  0  0  0  0  0  0
    4.9964    7.5011    0.0000 C   0  0  0  0  0  0  0  0  0  0  0  0
    4.3863    6.1307    0.0000 O   0  0  0  0  0  0  0  0  0  0  0  0
    2.8945    5.9740    0.0000 C   0  0  0  0  0  0  0  0  0  0  0  0
    2.0128    7.1875    0.0000 O   0  0  0  0  0  0  0  0  0  0  0  0
    2.2844    4.6036    0.0000 C   0  0  0  0  0  0  0  0  0  0  0  0
    3.5834    3.8536    0.0000 C   0  0  0  0  0  0  0  0  0  0  0  0
    2.2844    3.1036    0.0000 C   0  0  0  0  0  0  0  0  0  0  0  0
    0.8578    2.6401    0.0000 C   0  0  0  0  0  0  0  0  0  0  0  0
    0.3943    1.2135    0.0000 N   0  0  0  0  0  0  0  0  0  0  0  0
    1.2760    0.0000    0.0000 C   0  0  0  0  0  0  0  0  0  0  0  0
    0.3943   -1.2135    0.0000 N   0  0  0  0  0  0  0  0  0  0  0  0
   -1.0323   -0.7500    0.0000 C   0  0  0  0  0  0  0  0  0  0  0  0
   -2.3313   -1.5000    0.0000 C   0  0  0  0  0  0  0  0  0  0  0  0
   -2.3313   -3.0000    0.0000 N   0  0  0  0  0  0  0  0  0  0  0  0
   -3.6304   -3.7500    0.0000 C   0  0  0  0  0  0  0  0  0  0  0  0
   -1.0323   -3.7500    0.0000 C   0  0  0  0  0  0  0  0  0  0  0  0
   -3.6304   -0.7500    0.0000 N   0  0  0  0  0  0  0  0  0  0  0  0
   -3.6304    0.7500    0.0000 C   0  0  0  0  0  0  0  0  0  0  0  0
   -4.9294    1.5000    0.0000 Cl  0  0  0  0  0  0  0  0  0  0  0  0
   -2.3313    1.5000    0.0000 N   0  0  0  0  0  0  0  0  0  0  0  0
   -1.0323    0.7500    0.0000 C   0  0  0  0  0  0  0  0  0  0  0  0
   -0.0239    3.8536    0.0000 C   0  0  0  0  0  0  0  0  0  0  0  0
   -1.5239    3.8536    0.0000 O   0  0  0  0  0  0  0  0  0  0  0  0
    0.8578    5.0672    0.0000 C   0  0  0  0  0  0  0  0  0  0  0  0
    0.3943    6.4937    0.0000 O   0  0  0  0  0  0  0  0  0  0  0  0
  1  2  1  0
  2  3  1  0
  3  4  1  0
  4  5  2  0
  6  4  1  1
  6  7  1  0
  8  7  1  6
  8  9  1  0
  9 10  1  1
 10 11  1  0
 11 12  2  0
 12 13  1  0
 13 14  2  0
 14 15  1  0
 15 16  1  0
 15 17  1  0
 14 18  1  0
 18 19  2  0
 19 20  1  0
 19 21  1  0
 21 22  2  0
  9 23  1  0
 23 24  1  6
 23 25  1  0
 25 26  1  6
  8  6  1  0
 22 10  1  0
 25  6  1  0
 22 13  1  0
M  END
>  <assay_chembl_id>  (584) 
CHEMBL3863860

>  <assay_description>  (584) 
Displacement of [3H]lysergic from human 5-HT2BR expressed in HEK cell membranes incubated in dark for 90 mins by microbeta scintillation counting method

>  <parent_molecule_chembl_id>  (584) 
CHEMBL3967613

>  <canonical_smiles>  (584) 
CCOC(=O)[C@@]12C[C@@H]1[C@@H](n1cnc3c(N(C)C)nc(Cl)nc31)[C@H](O)[C@@H]2O

>  <standard_type>  (584) 
Ki

>  <standard_relation>  (584) 
=

>  <standard_value>  (584) 
671.0

>  <standard_units>  (584) 
nM

>  <target_pref_name>  (584) 
Serotonin 2b (5-HT2b) receptor

>  <target_chembl_id>  (584) 
CHEMBL1833

>  <target_organism>  (584) 
Homo sapiens

>  <pchembl_median>  (584) 
7.46

$$$$
CHEMBL3938006
     RDKit          2D

 24 27  0  0  0  0  0  0  0  0999 V2000
    2.4446    4.6115    0.0000 C   0  0  0  0  0  0  0  0  0  0  0  0
    2.1328    3.1443    0.0000 N   0  0  0  0  0  0  0  0  0  0  0  0
    3.2475    2.1406    0.0000 C   0  0  0  0  0  0  0  0  0  0  0  0
    0.7062    2.6807    0.0000 C   0  0  0  0  0  0  0  0  0  0  0  0
   -0.4086    3.6844    0.0000 N   0  0  0  0  0  0  0  0  0  0  0  0
   -1.8351    3.2209    0.0000 C   0  0  0  0  0  0  0  0  0  0  0  0
   -2.9499    4.2246    0.0000 Cl  0  0  0  0  0  0  0  0  0  0  0  0
   -2.1470    1.7537    0.0000 N   0  0  0  0  0  0  0  0  0  0  0  0
   -1.0323    0.7500    0.0000 C   0  0  0  0  0  0  0  0  0  0  0  0
    0.3943    1.2135    0.0000 C   0  0  0  0  0  0  0  0  0  0  0  0
    1.2760    0.0000    0.0000 N   0  0  0  0  0  0  0  0  0  0  0  0
    0.3943   -1.2135    0.0000 C   0  0  0  0  0  0  0  0  0  0  0  0
   -1.0323   -0.7500    0.0000 N   0  0  0  0  0  0  0  0  0  0  0  0
   -2.2458   -1.6317    0.0000 C   0  0  0  0  0  0  0  0  0  0  0  0
   -3.6724   -1.1682    0.0000 C   0  0  0  0  0  0  0  0  0  0  0  0
   -4.1359    0.2584    0.0000 O   0  0  0  0  0  0  0  0  0  0  0  0
   -4.5541   -2.3817    0.0000 C   0  0  0  0  0  0  0  0  0  0  0  0
   -6.0541   -2.3817    0.0000 O   0  0  0  0  0  0  0  0  0  0  0  0
   -3.6724   -3.5952    0.0000 C   0  0  0  0  0  0  0  0  0  0  0  0
   -4.7871   -4.5989    0.0000 C   0  0  0  0  0  0  0  0  0  0  0  0
   -6.2137   -4.1354    0.0000 O   0  0  0  0  0  0  0  0  0  0  0  0
   -4.4752   -6.0661    0.0000 O   0  0  0  0  0  0  0  0  0  0  0  0
   -2.5577   -4.5989    0.0000 C   0  0  0  0  0  0  0  0  0  0  0  0
   -2.2458   -3.1317    0.0000 C   0  0  0  0  0  0  0  0  0  0  0  0
  1  2  1  0
  2  3  1  0
  2  4  1  0
  4  5  2  0
  5  6  1  0
  6  7  1  0
  6  8  2  0
  8  9  1  0
  9 10  2  0
 10 11  1  0
 11 12  2  0
 12 13  1  0
 14 13  1  6
 14 15  1  0
 15 16  1  1
 15 17  1  0
 17 18  1  1
 17 19  1  0
 19 20  1  6
 20 21  2  0
 20 22  1  0
 19 23  1  0
 24 23  1  1
 10  4  1  0
 24 14  1  0
 13  9  1  0
 24 19  1  0
M  END
>  <assay_chembl_id>  (585) 
CHEMBL3863860

>  <assay_description>  (585) 
Displacement of [3H]lysergic from human 5-HT2BR expressed in HEK cell membranes incubated in dark for 90 mins by microbeta scintillation counting method

>  <parent_molecule_chembl_id>  (585) 
CHEMBL3938006

>  <canonical_smiles>  (585) 
CN(C)c1nc(Cl)nc2c1ncn2[C@H]1[C@H](O)[C@H](O)[C@]2(C(=O)O)C[C@H]12

>  <standard_type>  (585) 
Ki

>  <standard_relation>  (585) 
=

>  <standard_value>  (585) 
4700.0

>  <standard_units>  (585) 
nM

>  <target_pref_name>  (585) 
Serotonin 2b (5-HT2b) receptor

>  <target_chembl_id>  (585) 
CHEMBL1833

>  <target_organism>  (585) 
Homo sapiens

>  <pchembl_median>  (585) 
6.3

$$$$
CHEMBL3913293
     RDKit          2D

 35 40  0  0  0  0  0  0  0  0999 V2000
    9.2002   10.5553    0.0000 C   0  0  0  0  0  0  0  0  0  0  0  0
    8.5901    9.1850    0.0000 C   0  0  0  0  0  0  0  0  0  0  0  0
    9.4717    7.9714    0.0000 O   0  0  0  0  0  0  0  0  0  0  0  0
    7.0983    9.0282    0.0000 N   0  0  0  0  0  0  0  0  0  0  0  0
    6.4882    7.6579    0.0000 C   0  0  0  0  0  0  0  0  0  0  0  0
    4.9964    7.5011    0.0000 C   0  0  0  0  0  0  0  0  0  0  0  0
    4.3863    6.1307    0.0000 N   0  0  0  0  0  0  0  0  0  0  0  0
    2.8945    5.9740    0.0000 C   0  0  0  0  0  0  0  0  0  0  0  0
    2.0128    7.1875    0.0000 O   0  0  0  0  0  0  0  0  0  0  0  0
    2.2844    4.6036    0.0000 C   0  0  0  0  0  0  0  0  0  0  0  0
    3.5834    3.8536    0.0000 C   0  0  0  0  0  0  0  0  0  0  0  0
    2.2844    3.1036    0.0000 C   0  0  0  0  0  0  0  0  0  0  0  0
    0.8578    2.6401    0.0000 C   0  0  0  0  0  0  0  0  0  0  0  0
    0.3943    1.2135    0.0000 N   0  0  0  0  0  0  0  0  0  0  0  0
    1.2760    0.0000    0.0000 C   0  0  0  0  0  0  0  0  0  0  0  0
    0.3943   -1.2135    0.0000 N   0  0  0  0  0  0  0  0  0  0  0  0
   -1.0323   -0.7500    0.0000 C   0  0  0  0  0  0  0  0  0  0  0  0
   -2.3313   -1.5000    0.0000 C   0  0  0  0  0  0  0  0  0  0  0  0
   -2.3313   -3.0000    0.0000 N   0  0  0  0  0  0  0  0  0  0  0  0
   -3.6304   -3.7500    0.0000 C   0  0  0  0  0  0  0  0  0  0  0  0
   -3.6304   -5.2500    0.0000 C   0  0  0  0  0  0  0  0  0  0  0  0
   -2.8804   -6.5490    0.0000 C   0  0  0  0  0  0  0  0  0  0  0  0
   -4.3804   -6.5490    0.0000 C   0  0  0  0  0  0  0  0  0  0  0  0
   -4.9294   -3.0000    0.0000 C   0  0  0  0  0  0  0  0  0  0  0  0
   -6.4294   -3.0000    0.0000 C   0  0  0  0  0  0  0  0  0  0  0  0
   -5.6794   -1.7010    0.0000 C   0  0  0  0  0  0  0  0  0  0  0  0
   -3.6304   -0.7500    0.0000 N   0  0  0  0  0  0  0  0  0  0  0  0
   -3.6304    0.7500    0.0000 C   0  0  0  0  0  0  0  0  0  0  0  0
   -4.9294    1.5000    0.0000 Cl  0  0  0  0  0  0  0  0  0  0  0  0
   -2.3313    1.5000    0.0000 N   0  0  0  0  0  0  0  0  0  0  0  0
   -1.0323    0.7500    0.0000 C   0  0  0  0  0  0  0  0  0  0  0  0
   -0.0239    3.8536    0.0000 C   0  0  0  0  0  0  0  0  0  0  0  0
   -1.5239    3.8536    0.0000 O   0  0  0  0  0  0  0  0  0  0  0  0
    0.8578    5.0672    0.0000 C   0  0  0  0  0  0  0  0  0  0  0  0
    0.3943    6.4937    0.0000 O   0  0  0  0  0  0  0  0  0  0  0  0
  1  2  1  0
  2  3  2  0
  2  4  1  0
  4  5  1  0
  5  6  1  0
  6  7  1  0
  7  8  1  0
  8  9  2  0
 10  8  1  1
 10 11  1  0
 12 11  1  6
 12 13  1  0
 13 14  1  1
 14 15  1  0
 15 16  2  0
 16 17  1  0
 17 18  2  0
 18 19  1  0
 19 20  1  0
 20 21  1  0
 21 22  1  0
 22 23  1  0
 20 24  1  0
 24 25  1  0
 25 26  1  0
 18 27  1  0
 27 28  2  0
 28 29  1  0
 28 30  1  0
 30 31  2  0
 13 32  1  0
 32 33  1  6
 32 34  1  0
 34 35  1  6
 12 10  1  0
 31 14  1  0
 34 10  1  0
 31 17  1  0
 23 21  1  0
 26 24  1  0
M  END
>  <assay_chembl_id>  (586) 
CHEMBL3863860

>  <assay_description>  (586) 
Displacement of [3H]lysergic from human 5-HT2BR expressed in HEK cell membranes incubated in dark for 90 mins by microbeta scintillation counting method

>  <parent_molecule_chembl_id>  (586) 
CHEMBL3913293

>  <canonical_smiles>  (586) 
CC(=O)NCCNC(=O)[C@@]12C[C@@H]1[C@@H](n1cnc3c(NC(C4CC4)C4CC4)nc(Cl)nc31)[C@H](O)[C@@H]2O

>  <standard_type>  (586) 
Ki

>  <standard_relation>  (586) 
=

>  <standard_value>  (586) 
332.0

>  <standard_units>  (586) 
nM

>  <target_pref_name>  (586) 
Serotonin 2b (5-HT2b) receptor

>  <target_chembl_id>  (586) 
CHEMBL1833

>  <target_organism>  (586) 
Homo sapiens

>  <pchembl_median>  (586) 
5.7

$$$$
CHEMBL3983143
     RDKit          2D

 36 41  0  0  0  0  0  0  0  0999 V2000
   10.6920   10.7121    0.0000 C   0  0  0  0  0  0  0  0  0  0  0  0
    9.2002   10.5553    0.0000 C   0  0  0  0  0  0  0  0  0  0  0  0
    8.3185   11.7688    0.0000 O   0  0  0  0  0  0  0  0  0  0  0  0
    8.5901    9.1850    0.0000 N   0  0  0  0  0  0  0  0  0  0  0  0
    7.0983    9.0282    0.0000 C   0  0  0  0  0  0  0  0  0  0  0  0
    6.4882    7.6579    0.0000 C   0  0  0  0  0  0  0  0  0  0  0  0
    4.9964    7.5011    0.0000 C   0  0  0  0  0  0  0  0  0  0  0  0
    4.3863    6.1307    0.0000 N   0  0  0  0  0  0  0  0  0  0  0  0
    2.8945    5.9740    0.0000 C   0  0  0  0  0  0  0  0  0  0  0  0
    2.0128    7.1875    0.0000 O   0  0  0  0  0  0  0  0  0  0  0  0
    2.2844    4.6036    0.0000 C   0  0  0  0  0  0  0  0  0  0  0  0
    3.5834    3.8536    0.0000 C   0  0  0  0  0  0  0  0  0  0  0  0
    2.2844    3.1036    0.0000 C   0  0  0  0  0  0  0  0  0  0  0  0
    0.8578    2.6401    0.0000 C   0  0  0  0  0  0  0  0  0  0  0  0
    0.3943    1.2135    0.0000 N   0  0  0  0  0  0  0  0  0  0  0  0
    1.2760    0.0000    0.0000 C   0  0  0  0  0  0  0  0  0  0  0  0
    0.3943   -1.2135    0.0000 N   0  0  0  0  0  0  0  0  0  0  0  0
   -1.0323   -0.7500    0.0000 C   0  0  0  0  0  0  0  0  0  0  0  0
   -2.3313   -1.5000    0.0000 C   0  0  0  0  0  0  0  0  0  0  0  0
   -2.3313   -3.0000    0.0000 N   0  0  0  0  0  0  0  0  0  0  0  0
   -3.6304   -3.7500    0.0000 C   0  0  0  0  0  0  0  0  0  0  0  0
   -3.6304   -5.2500    0.0000 C   0  0  0  0  0  0  0  0  0  0  0  0
   -2.8804   -6.5490    0.0000 C   0  0  0  0  0  0  0  0  0  0  0  0
   -4.3804   -6.5490    0.0000 C   0  0  0  0  0  0  0  0  0  0  0  0
   -4.9294   -3.0000    0.0000 C   0  0  0  0  0  0  0  0  0  0  0  0
   -6.4294   -3.0000    0.0000 C   0  0  0  0  0  0  0  0  0  0  0  0
   -5.6794   -1.7010    0.0000 C   0  0  0  0  0  0  0  0  0  0  0  0
   -3.6304   -0.7500    0.0000 N   0  0  0  0  0  0  0  0  0  0  0  0
   -3.6304    0.7500    0.0000 C   0  0  0  0  0  0  0  0  0  0  0  0
   -4.9294    1.5000    0.0000 Cl  0  0  0  0  0  0  0  0  0  0  0  0
   -2.3313    1.5000    0.0000 N   0  0  0  0  0  0  0  0  0  0  0  0
   -1.0323    0.7500    0.0000 C   0  0  0  0  0  0  0  0  0  0  0  0
   -0.0239    3.8536    0.0000 C   0  0  0  0  0  0  0  0  0  0  0  0
   -1.5239    3.8536    0.0000 O   0  0  0  0  0  0  0  0  0  0  0  0
    0.8578    5.0672    0.0000 C   0  0  0  0  0  0  0  0  0  0  0  0
    0.3943    6.4937    0.0000 O   0  0  0  0  0  0  0  0  0  0  0  0
  1  2  1  0
  2  3  2  0
  2  4  1  0
  4  5  1  0
  5  6  1  0
  6  7  1  0
  7  8  1  0
  8  9  1  0
  9 10  2  0
 11  9  1  1
 11 12  1  0
 13 12  1  6
 13 14  1  0
 14 15  1  1
 15 16  1  0
 16 17  2  0
 17 18  1  0
 18 19  2  0
 19 20  1  0
 20 21  1  0
 21 22  1  0
 22 23  1  0
 23 24  1  0
 21 25  1  0
 25 26  1  0
 26 27  1  0
 19 28  1  0
 28 29  2  0
 29 30  1  0
 29 31  1  0
 31 32  2  0
 14 33  1  0
 33 34  1  6
 33 35  1  0
 35 36  1  6
 13 11  1  0
 32 15  1  0
 35 11  1  0
 32 18  1  0
 24 22  1  0
 27 25  1  0
M  END
>  <assay_chembl_id>  (587) 
CHEMBL3863860

>  <assay_description>  (587) 
Displacement of [3H]lysergic from human 5-HT2BR expressed in HEK cell membranes incubated in dark for 90 mins by microbeta scintillation counting method

>  <parent_molecule_chembl_id>  (587) 
CHEMBL3983143

>  <canonical_smiles>  (587) 
CC(=O)NCCCNC(=O)[C@@]12C[C@@H]1[C@@H](n1cnc3c(NC(C4CC4)C4CC4)nc(Cl)nc31)[C@H](O)[C@@H]2O

>  <standard_type>  (587) 
Ki

>  <standard_relation>  (587) 
=

>  <standard_value>  (587) 
534.0

>  <standard_units>  (587) 
nM

>  <target_pref_name>  (587) 
Serotonin 2b (5-HT2b) receptor

>  <target_chembl_id>  (587) 
CHEMBL1833

>  <target_organism>  (587) 
Homo sapiens

>  <pchembl_median>  (587) 
6.8

$$$$
CHEMBL3936289
     RDKit          2D

 22 25  0  0  0  0  0  0  0  0999 V2000
   -3.7500    1.2990    0.0000 C   0  0  0  0  0  0  0  0  0  0  0  0
   -3.0000    0.0000    0.0000 N   0  0  0  0  0  0  0  0  0  0  0  0
   -3.7500   -1.2990    0.0000 C   0  0  0  0  0  0  0  0  0  0  0  0
   -3.0000   -2.5981    0.0000 C   0  0  0  0  0  0  0  0  0  0  0  0
   -1.5000   -2.5981    0.0000 C   0  0  0  0  0  0  0  0  0  0  0  0
   -0.7500   -3.8971    0.0000 C   0  0  0  0  0  0  0  0  0  0  0  0
    0.7500   -3.8971    0.0000 C   0  0  0  0  0  0  0  0  0  0  0  0
    1.5000   -5.1962    0.0000 O   0  0  0  0  0  0  0  0  0  0  0  0
    1.5000   -2.5981    0.0000 C   0  0  0  0  0  0  0  0  0  0  0  0
    3.0000   -2.5981    0.0000 C   0  0  0  0  0  0  0  0  0  0  0  0
    3.7500   -3.8971    0.0000 C   0  0  0  0  0  0  0  0  0  0  0  0
    3.0000   -5.1962    0.0000 C   0  0  0  0  0  0  0  0  0  0  0  0
    3.7500   -6.4952    0.0000 C   0  0  0  0  0  0  0  0  0  0  0  0
    5.2500   -6.4952    0.0000 C   0  0  0  0  0  0  0  0  0  0  0  0
    6.0000   -5.1962    0.0000 C   0  0  0  0  0  0  0  0  0  0  0  0
    5.2500   -3.8971    0.0000 C   0  0  0  0  0  0  0  0  0  0  0  0
    0.7500   -1.2990    0.0000 C   0  0  0  0  0  0  0  0  0  0  0  0
    1.5000    0.0000    0.0000 C   0  0  0  0  0  0  0  0  0  0  0  0
    0.7500    1.2990    0.0000 C   0  0  0  0  0  0  0  0  0  0  0  0
   -0.7500    1.2990    0.0000 C   0  0  0  0  0  0  0  0  0  0  0  0
   -1.5000    0.0000    0.0000 C   0  0  0  0  0  0  0  0  0  0  0  0
   -0.7500   -1.2990    0.0000 C   0  0  0  0  0  0  0  0  0  0  0  0
  1  2  1  0
  2  3  1  0
  3  4  1  0
  5  4  1  6
  5  6  1  0
  6  7  1  0
  7  8  2  0
  7  9  1  0
  9 10  1  1
 10 11  1  0
 11 12  2  0
 12 13  1  0
 13 14  2  0
 14 15  1  0
 15 16  2  0
  9 17  1  0
 17 18  1  6
 18 19  1  0
 19 20  1  0
 21 20  1  6
 22 21  1  1
 21  2  1  0
 22  5  1  0
 16 11  1  0
 22 17  1  0
M  END
>  <assay_chembl_id>  (588) 
CHEMBL3869806

>  <assay_description>  (588) 
Displacement of [3H]LSD from human 5-HT2B receptor expressed in HEK cells measured after 90 mins by microbeta scintillation counting method

>  <parent_molecule_chembl_id>  (588) 
CHEMBL3936289

>  <canonical_smiles>  (588) 
CN1CC[C@H]2CC(=O)[C@H](Cc3ccccc3)[C@H]3CCC[C@@H]1[C@H]23

>  <standard_type>  (588) 
Ki

>  <standard_relation>  (588) 
=

>  <standard_value>  (588) 
1905.0

>  <standard_units>  (588) 
nM

>  <target_pref_name>  (588) 
Serotonin 2b (5-HT2b) receptor

>  <target_chembl_id>  (588) 
CHEMBL1833

>  <target_organism>  (588) 
Homo sapiens

>  <pchembl_median>  (588) 
6.6

$$$$
CHEMBL3947276
     RDKit          2D

 17 19  0  0  0  0  0  0  0  0999 V2000
   -0.7500   -9.0933    0.0000 C   0  0  0  0  0  0  0  0  0  0  0  0
   -1.5000   -7.7942    0.0000 C   0  0  0  0  0  0  0  0  0  0  0  0
   -0.7500   -6.4952    0.0000 C   0  0  0  0  0  0  0  0  0  0  0  0
   -1.5000   -5.1962    0.0000 C   0  0  0  0  0  0  0  0  0  0  0  0
   -3.0000   -5.1962    0.0000 C   0  0  0  0  0  0  0  0  0  0  0  0
   -3.7500   -3.8971    0.0000 C   0  0  0  0  0  0  0  0  0  0  0  0
   -3.0000   -2.5981    0.0000 C   0  0  0  0  0  0  0  0  0  0  0  0
   -1.5000   -2.5981    0.0000 C   0  0  0  0  0  0  0  0  0  0  0  0
   -0.7500   -3.8971    0.0000 C   0  0  0  0  0  0  0  0  0  0  0  0
    0.7500   -3.8971    0.0000 C   0  0  0  0  0  0  0  0  0  0  0  0
    1.5000   -2.5981    0.0000 C   0  0  0  0  0  0  0  0  0  0  0  0
    0.7500   -1.2990    0.0000 C   0  0  0  0  0  0  0  0  0  0  0  0
    1.5000    0.0000    0.0000 C   0  0  0  0  0  0  0  0  0  0  0  0
    0.7500    1.2990    0.0000 N   0  0  0  0  0  0  0  0  0  0  0  0
   -0.7500    1.2990    0.0000 C   0  0  0  0  0  0  0  0  0  0  0  0
   -1.5000    0.0000    0.0000 C   0  0  0  0  0  0  0  0  0  0  0  0
   -0.7500   -1.2990    0.0000 N   0  0  0  0  0  0  0  0  0  0  0  0
  1  2  1  0
  2  3  1  0
  3  4  1  0
  4  5  2  0
  5  6  1  0
  6  7  2  0
  7  8  1  0
  8  9  2  0
  9 10  1  0
 10 11  1  0
 11 12  1  0
 12 13  1  0
 13 14  1  0
 14 15  1  0
 15 16  1  0
 16 17  1  0
  9  4  1  0
 17 12  1  0
 17  8  1  0
M  END
>  <assay_chembl_id>  (589) 
CHEMBL3871854

>  <assay_description>  (589) 
Displacement of [125I]DOI from recombinant human 5-HT2B receptor expressed in HEK293 cell membranes after 1 hr by scintillation counting

>  <parent_molecule_chembl_id>  (589) 
CHEMBL3947276

>  <canonical_smiles>  (589) 
CCCc1cccc2c1CCC1CNCCN21

>  <standard_type>  (589) 
Ki

>  <standard_relation>  (589) 
=

>  <standard_value>  (589) 
25.12

>  <standard_units>  (589) 
nM

>  <target_pref_name>  (589) 
Serotonin 2b (5-HT2b) receptor

>  <target_chembl_id>  (589) 
CHEMBL1833

>  <target_organism>  (589) 
Homo sapiens

>  <pchembl_median>  (589) 
6.51

$$$$
CHEMBL3912721
     RDKit          2D

 19 22  0  0  0  0  0  0  0  0999 V2000
    3.7500   -3.8971    0.0000 C   0  0  0  0  0  0  0  0  0  0  0  0
    3.0000   -5.1962    0.0000 C   0  0  0  0  0  0  0  0  0  0  0  0
    1.5000   -5.1962    0.0000 C   0  0  0  0  0  0  0  0  0  0  0  0
    0.7500   -6.4952    0.0000 C   0  0  0  0  0  0  0  0  0  0  0  0
    1.5000   -7.7942    0.0000 C   0  0  0  0  0  0  0  0  0  0  0  0
    1.1118   -9.2431    0.0000 C   0  0  0  0  0  0  0  0  0  0  0  0
    2.5607   -9.6313    0.0000 C   0  0  0  0  0  0  0  0  0  0  0  0
    2.9489   -8.1825    0.0000 C   0  0  0  0  0  0  0  0  0  0  0  0
    0.7500   -3.8971    0.0000 C   0  0  0  0  0  0  0  0  0  0  0  0
    1.5000   -2.5981    0.0000 C   0  0  0  0  0  0  0  0  0  0  0  0
    3.0000   -2.5981    0.0000 C   0  0  0  0  0  0  0  0  0  0  0  0
    0.7500   -1.2990    0.0000 N   0  0  0  0  0  0  0  0  0  0  0  0
    1.5000    0.0000    0.0000 C   0  0  0  0  0  0  0  0  0  0  0  0
    0.7500    1.2990    0.0000 C   0  0  0  0  0  0  0  0  0  0  0  0
   -0.7500    1.2990    0.0000 N   0  0  0  0  0  0  0  0  0  0  0  0
   -1.5000    0.0000    0.0000 C   0  0  0  0  0  0  0  0  0  0  0  0
   -0.7500   -1.2990    0.0000 C   0  0  0  0  0  0  0  0  0  0  0  0
   -1.5000   -2.5981    0.0000 C   0  0  0  0  0  0  0  0  0  0  0  0
   -0.7500   -3.8971    0.0000 C   0  0  0  0  0  0  0  0  0  0  0  0
  1  2  2  0
  2  3  1  0
  3  4  1  0
  4  5  1  0
  5  6  1  0
  6  7  1  0
  7  8  1  0
  3  9  2  0
  9 10  1  0
 10 11  2  0
 10 12  1  0
 12 13  1  0
 13 14  1  0
 14 15  1  0
 15 16  1  0
 16 17  1  0
 17 18  1  0
 18 19  1  0
 11  1  1  0
 17 12  1  0
  8  5  1  0
 19  9  1  0
M  END
>  <assay_chembl_id>  (590) 
CHEMBL3871854

>  <assay_description>  (590) 
Displacement of [125I]DOI from recombinant human 5-HT2B receptor expressed in HEK293 cell membranes after 1 hr by scintillation counting

>  <parent_molecule_chembl_id>  (590) 
CHEMBL3912721

>  <canonical_smiles>  (590) 
c1cc(CC2CCC2)c2c(c1)N1CCNCC1CC2

>  <standard_type>  (590) 
Ki

>  <standard_relation>  (590) 
=

>  <standard_value>  (590) 
63.1

>  <standard_units>  (590) 
nM

>  <target_pref_name>  (590) 
Serotonin 2b (5-HT2b) receptor

>  <target_chembl_id>  (590) 
CHEMBL1833

>  <target_organism>  (590) 
Homo sapiens

>  <pchembl_median>  (590) 
5.25

$$$$
CHEMBL3919795
     RDKit          2D

 21 24  0  0  0  0  0  0  0  0999 V2000
   -3.0000  -10.3923    0.0000 C   0  0  0  0  0  0  0  0  0  0  0  0
   -3.7500   -9.0933    0.0000 C   0  0  0  0  0  0  0  0  0  0  0  0
   -3.0000   -7.7942    0.0000 C   0  0  0  0  0  0  0  0  0  0  0  0
   -1.5000   -7.7942    0.0000 C   0  0  0  0  0  0  0  0  0  0  0  0
   -0.7500   -6.4952    0.0000 C   0  0  0  0  0  0  0  0  0  0  0  0
   -1.5000   -5.1962    0.0000 C   0  0  0  0  0  0  0  0  0  0  0  0
   -3.0000   -5.1962    0.0000 C   0  0  0  0  0  0  0  0  0  0  0  0
   -3.7500   -3.8971    0.0000 C   0  0  0  0  0  0  0  0  0  0  0  0
   -3.0000   -2.5981    0.0000 C   0  0  0  0  0  0  0  0  0  0  0  0
   -1.5000   -2.5981    0.0000 C   0  0  0  0  0  0  0  0  0  0  0  0
   -0.7500   -3.8971    0.0000 C   0  0  0  0  0  0  0  0  0  0  0  0
    0.7500   -3.8971    0.0000 C   0  0  0  0  0  0  0  0  0  0  0  0
    1.5000   -2.5981    0.0000 C   0  0  0  0  0  0  0  0  0  0  0  0
    0.7500   -1.2990    0.0000 C   0  0  0  0  0  0  0  0  0  0  0  0
    1.5000    0.0000    0.0000 C   0  0  0  0  0  0  0  0  0  0  0  0
    0.7500    1.2990    0.0000 N   0  0  0  0  0  0  0  0  0  0  0  0
   -0.7500    1.2990    0.0000 C   0  0  0  0  0  0  0  0  0  0  0  0
   -1.5000    0.0000    0.0000 C   0  0  0  0  0  0  0  0  0  0  0  0
   -0.7500   -1.2990    0.0000 N   0  0  0  0  0  0  0  0  0  0  0  0
   -0.7500   -9.0933    0.0000 C   0  0  0  0  0  0  0  0  0  0  0  0
   -1.5000  -10.3923    0.0000 C   0  0  0  0  0  0  0  0  0  0  0  0
  1  2  2  0
  2  3  1  0
  3  4  2  0
  4  5  1  0
  5  6  1  0
  6  7  2  0
  7  8  1  0
  8  9  2  0
  9 10  1  0
 10 11  2  0
 11 12  1  0
 12 13  1  0
 13 14  1  0
 14 15  1  0
 15 16  1  0
 16 17  1  0
 17 18  1  0
 18 19  1  0
  4 20  1  0
 20 21  2  0
 21  1  1  0
 11  6  1  0
 19 14  1  0
 19 10  1  0
M  END
>  <assay_chembl_id>  (591) 
CHEMBL3871854

>  <assay_description>  (591) 
Displacement of [125I]DOI from recombinant human 5-HT2B receptor expressed in HEK293 cell membranes after 1 hr by scintillation counting

>  <parent_molecule_chembl_id>  (591) 
CHEMBL3919795

>  <canonical_smiles>  (591) 
c1ccc(Cc2cccc3c2CCC2CNCCN32)cc1

>  <standard_type>  (591) 
Ki

>  <standard_relation>  (591) 
=

>  <standard_value>  (591) 
39.81

>  <standard_units>  (591) 
nM

>  <target_pref_name>  (591) 
Serotonin 2b (5-HT2b) receptor

>  <target_chembl_id>  (591) 
CHEMBL1833

>  <target_organism>  (591) 
Homo sapiens

>  <pchembl_median>  (591) 
7.1

$$$$
CHEMBL3956394
     RDKit          2D

 22 25  0  0  0  0  0  0  0  0999 V2000
   -3.7500   -6.4952    0.0000 F   0  0  0  0  0  0  0  0  0  0  0  0
   -3.0000   -5.1962    0.0000 C   0  0  0  0  0  0  0  0  0  0  0  0
   -3.7500   -3.8971    0.0000 C   0  0  0  0  0  0  0  0  0  0  0  0
   -3.0000   -2.5981    0.0000 C   0  0  0  0  0  0  0  0  0  0  0  0
   -1.5000   -2.5981    0.0000 C   0  0  0  0  0  0  0  0  0  0  0  0
   -0.7500   -3.8971    0.0000 C   0  0  0  0  0  0  0  0  0  0  0  0
   -1.5000   -5.1962    0.0000 C   0  0  0  0  0  0  0  0  0  0  0  0
   -0.7500   -6.4952    0.0000 C   0  0  0  0  0  0  0  0  0  0  0  0
   -1.5000   -7.7942    0.0000 C   0  0  0  0  0  0  0  0  0  0  0  0
   -3.0000   -7.7942    0.0000 C   0  0  0  0  0  0  0  0  0  0  0  0
   -3.7500   -9.0933    0.0000 C   0  0  0  0  0  0  0  0  0  0  0  0
   -3.0000  -10.3923    0.0000 C   0  0  0  0  0  0  0  0  0  0  0  0
   -1.5000  -10.3923    0.0000 C   0  0  0  0  0  0  0  0  0  0  0  0
   -0.7500   -9.0933    0.0000 C   0  0  0  0  0  0  0  0  0  0  0  0
    0.7500   -3.8971    0.0000 C   0  0  0  0  0  0  0  0  0  0  0  0
    1.5000   -2.5981    0.0000 C   0  0  0  0  0  0  0  0  0  0  0  0
    0.7500   -1.2990    0.0000 C   0  0  0  0  0  0  0  0  0  0  0  0
    1.5000    0.0000    0.0000 C   0  0  0  0  0  0  0  0  0  0  0  0
    0.7500    1.2990    0.0000 N   0  0  0  0  0  0  0  0  0  0  0  0
   -0.7500    1.2990    0.0000 C   0  0  0  0  0  0  0  0  0  0  0  0
   -1.5000    0.0000    0.0000 C   0  0  0  0  0  0  0  0  0  0  0  0
   -0.7500   -1.2990    0.0000 N   0  0  0  0  0  0  0  0  0  0  0  0
  1  2  1  0
  2  3  2  0
  3  4  1  0
  4  5  2  0
  5  6  1  0
  6  7  2  0
  7  8  1  0
  8  9  1  0
  9 10  2  0
 10 11  1  0
 11 12  2  0
 12 13  1  0
 13 14  2  0
  6 15  1  0
 15 16  1  0
 16 17  1  0
 17 18  1  0
 18 19  1  0
 19 20  1  0
 20 21  1  0
 21 22  1  0
  7  2  1  0
 14  9  1  0
 22 17  1  0
 22  5  1  0
M  END
>  <assay_chembl_id>  (592) 
CHEMBL3871854

>  <assay_description>  (592) 
Displacement of [125I]DOI from recombinant human 5-HT2B receptor expressed in HEK293 cell membranes after 1 hr by scintillation counting

>  <parent_molecule_chembl_id>  (592) 
CHEMBL3956394

>  <canonical_smiles>  (592) 
Fc1ccc2c(c1Cc1ccccc1)CCC1CNCCN21

>  <standard_type>  (592) 
Ki

>  <standard_relation>  (592) 
=

>  <standard_value>  (592) 
12.59

>  <standard_units>  (592) 
nM

>  <target_pref_name>  (592) 
Serotonin 2b (5-HT2b) receptor

>  <target_chembl_id>  (592) 
CHEMBL1833

>  <target_organism>  (592) 
Homo sapiens

>  <pchembl_median>  (592) 
6.3

$$$$
CHEMBL3959570
     RDKit          2D

 20 23  0  0  0  0  0  0  0  0999 V2000
   -3.3037   -9.4182    0.0000 C   0  0  0  0  0  0  0  0  0  0  0  0
   -2.0046  -10.1682    0.0000 C   0  0  0  0  0  0  0  0  0  0  0  0
   -0.8899   -9.1645    0.0000 S   0  0  0  0  0  0  0  0  0  0  0  0
   -1.5000   -7.7942    0.0000 C   0  0  0  0  0  0  0  0  0  0  0  0
   -0.7500   -6.4952    0.0000 C   0  0  0  0  0  0  0  0  0  0  0  0
   -1.5000   -5.1962    0.0000 C   0  0  0  0  0  0  0  0  0  0  0  0
   -3.0000   -5.1962    0.0000 C   0  0  0  0  0  0  0  0  0  0  0  0
   -3.7500   -3.8971    0.0000 C   0  0  0  0  0  0  0  0  0  0  0  0
   -3.0000   -2.5981    0.0000 C   0  0  0  0  0  0  0  0  0  0  0  0
   -1.5000   -2.5981    0.0000 C   0  0  0  0  0  0  0  0  0  0  0  0
   -0.7500   -3.8971    0.0000 C   0  0  0  0  0  0  0  0  0  0  0  0
    0.7500   -3.8971    0.0000 C   0  0  0  0  0  0  0  0  0  0  0  0
    1.5000   -2.5981    0.0000 C   0  0  0  0  0  0  0  0  0  0  0  0
    0.7500   -1.2990    0.0000 C   0  0  0  0  0  0  0  0  0  0  0  0
    1.5000    0.0000    0.0000 C   0  0  0  0  0  0  0  0  0  0  0  0
    0.7500    1.2990    0.0000 N   0  0  0  0  0  0  0  0  0  0  0  0
   -0.7500    1.2990    0.0000 C   0  0  0  0  0  0  0  0  0  0  0  0
   -1.5000    0.0000    0.0000 C   0  0  0  0  0  0  0  0  0  0  0  0
   -0.7500   -1.2990    0.0000 N   0  0  0  0  0  0  0  0  0  0  0  0
   -2.9918   -7.9510    0.0000 C   0  0  0  0  0  0  0  0  0  0  0  0
  1  2  2  0
  2  3  1  0
  3  4  1  0
  4  5  1  0
  5  6  1  0
  6  7  2  0
  7  8  1  0
  8  9  2  0
  9 10  1  0
 10 11  2  0
 11 12  1  0
 12 13  1  0
 13 14  1  0
 14 15  1  0
 15 16  1  0
 16 17  1  0
 17 18  1  0
 18 19  1  0
  4 20  2  0
 20  1  1  0
 11  6  1  0
 19 14  1  0
 19 10  1  0
M  END
>  <assay_chembl_id>  (593) 
CHEMBL3871854

>  <assay_description>  (593) 
Displacement of [125I]DOI from recombinant human 5-HT2B receptor expressed in HEK293 cell membranes after 1 hr by scintillation counting

>  <parent_molecule_chembl_id>  (593) 
CHEMBL3959570

>  <canonical_smiles>  (593) 
c1csc(Cc2cccc3c2CCC2CNCCN32)c1

>  <standard_type>  (593) 
Ki

>  <standard_relation>  (593) 
=

>  <standard_value>  (593) 
25.12

>  <standard_units>  (593) 
nM

>  <target_pref_name>  (593) 
Serotonin 2b (5-HT2b) receptor

>  <target_chembl_id>  (593) 
CHEMBL1833

>  <target_organism>  (593) 
Homo sapiens

>  <pchembl_median>  (593) 
6.6

$$$$
CHEMBL3935339
     RDKit          2D

 24 28  0  0  0  0  0  0  0  0999 V2000
    3.7500   -3.8971    0.0000 C   0  0  0  0  0  0  0  0  0  0  0  0
    3.0000   -5.1962    0.0000 C   0  0  0  0  0  0  0  0  0  0  0  0
    1.5000   -5.1962    0.0000 C   0  0  0  0  0  0  0  0  0  0  0  0
    0.7500   -6.4952    0.0000 C   0  0  0  0  0  0  0  0  0  0  0  0
    1.5000   -7.7942    0.0000 C   0  0  0  0  0  0  0  0  0  0  0  0
    3.0000   -7.7942    0.0000 C   0  0  0  0  0  0  0  0  0  0  0  0
    3.7500   -9.0933    0.0000 C   0  0  0  0  0  0  0  0  0  0  0  0
    3.0000  -10.3923    0.0000 C   0  0  0  0  0  0  0  0  0  0  0  0
    1.5000  -10.3923    0.0000 C   0  0  0  0  0  0  0  0  0  0  0  0
    0.7500   -9.0933    0.0000 C   0  0  0  0  0  0  0  0  0  0  0  0
    1.0365  -11.8189    0.0000 O   0  0  0  0  0  0  0  0  0  0  0  0
    2.2500  -12.7006    0.0000 C   0  0  0  0  0  0  0  0  0  0  0  0
    3.4635  -11.8189    0.0000 O   0  0  0  0  0  0  0  0  0  0  0  0
    0.7500   -3.8971    0.0000 C   0  0  0  0  0  0  0  0  0  0  0  0
    1.5000   -2.5981    0.0000 C   0  0  0  0  0  0  0  0  0  0  0  0
    3.0000   -2.5981    0.0000 C   0  0  0  0  0  0  0  0  0  0  0  0
    0.7500   -1.2990    0.0000 N   0  0  0  0  0  0  0  0  0  0  0  0
    1.5000    0.0000    0.0000 C   0  0  0  0  0  0  0  0  0  0  0  0
    0.7500    1.2990    0.0000 C   0  0  0  0  0  0  0  0  0  0  0  0
   -0.7500    1.2990    0.0000 N   0  0  0  0  0  0  0  0  0  0  0  0
   -1.5000    0.0000    0.0000 C   0  0  0  0  0  0  0  0  0  0  0  0
   -0.7500   -1.2990    0.0000 C   0  0  0  0  0  0  0  0  0  0  0  0
   -1.5000   -2.5981    0.0000 C   0  0  0  0  0  0  0  0  0  0  0  0
   -0.7500   -3.8971    0.0000 C   0  0  0  0  0  0  0  0  0  0  0  0
  1  2  2  0
  2  3  1  0
  3  4  1  0
  4  5  1  0
  5  6  2  0
  6  7  1  0
  7  8  2  0
  8  9  1  0
  9 10  2  0
  9 11  1  0
 11 12  1  0
 12 13  1  0
  3 14  2  0
 14 15  1  0
 15 16  2  0
 15 17  1  0
 17 18  1  0
 18 19  1  0
 19 20  1  0
 20 21  1  0
 21 22  1  0
 22 23  1  0
 23 24  1  0
 16  1  1  0
 22 17  1  0
 10  5  1  0
 24 14  1  0
 13  8  1  0
M  END
>  <assay_chembl_id>  (594) 
CHEMBL3871854

>  <assay_description>  (594) 
Displacement of [125I]DOI from recombinant human 5-HT2B receptor expressed in HEK293 cell membranes after 1 hr by scintillation counting

>  <parent_molecule_chembl_id>  (594) 
CHEMBL3935339

>  <canonical_smiles>  (594) 
c1cc(Cc2ccc3c(c2)OCO3)c2c(c1)N1CCNCC1CC2

>  <standard_type>  (594) 
Ki

>  <standard_relation>  (594) 
=

>  <standard_value>  (594) 
125.89

>  <standard_units>  (594) 
nM

>  <target_pref_name>  (594) 
Serotonin 2b (5-HT2b) receptor

>  <target_chembl_id>  (594) 
CHEMBL1833

>  <target_organism>  (594) 
Homo sapiens

>  <pchembl_median>  (594) 
6.7

$$$$
CHEMBL3895972
     RDKit          2D

 17 19  0  0  0  0  0  0  0  0999 V2000
   -2.6491   -1.6339    0.0000 C   0  0  0  0  0  0  0  0  0  0  0  0
   -1.5000   -2.5981    0.0000 C   0  0  0  0  0  0  0  0  0  0  0  0
   -2.6491   -3.5623    0.0000 C   0  0  0  0  0  0  0  0  0  0  0  0
   -0.7500   -3.8971    0.0000 C   0  0  0  0  0  0  0  0  0  0  0  0
    0.7500   -3.8971    0.0000 C   0  0  0  0  0  0  0  0  0  0  0  0
    1.5000   -5.1962    0.0000 C   0  0  0  0  0  0  0  0  0  0  0  0
    3.0000   -5.1962    0.0000 C   0  0  0  0  0  0  0  0  0  0  0  0
    3.7500   -3.8971    0.0000 C   0  0  0  0  0  0  0  0  0  0  0  0
    3.0000   -2.5981    0.0000 C   0  0  0  0  0  0  0  0  0  0  0  0
    3.7500   -1.2990    0.0000 Cl  0  0  0  0  0  0  0  0  0  0  0  0
    1.5000   -2.5981    0.0000 C   0  0  0  0  0  0  0  0  0  0  0  0
    0.7500   -1.2990    0.0000 N   0  0  0  0  0  0  0  0  0  0  0  0
    1.5000    0.0000    0.0000 C   0  0  0  0  0  0  0  0  0  0  0  0
    0.7500    1.2990    0.0000 C   0  0  0  0  0  0  0  0  0  0  0  0
   -0.7500    1.2990    0.0000 N   0  0  0  0  0  0  0  0  0  0  0  0
   -1.5000    0.0000    0.0000 C   0  0  0  0  0  0  0  0  0  0  0  0
   -0.7500   -1.2990    0.0000 C   0  0  0  0  0  0  0  0  0  0  0  0
  1  2  1  0
  2  3  1  0
  2  4  1  0
  4  5  1  0
  5  6  2  0
  6  7  1  0
  7  8  2  0
  8  9  1  0
  9 10  1  0
  9 11  2  0
 11 12  1  0
 12 13  1  0
 13 14  1  0
 14 15  1  0
 15 16  1  0
 16 17  1  0
 17  2  1  0
 11  5  1  0
 17 12  1  0
M  END
>  <assay_chembl_id>  (595) 
CHEMBL3871854

>  <assay_description>  (595) 
Displacement of [125I]DOI from recombinant human 5-HT2B receptor expressed in HEK293 cell membranes after 1 hr by scintillation counting

>  <parent_molecule_chembl_id>  (595) 
CHEMBL3895972

>  <canonical_smiles>  (595) 
CC1(C)Cc2cccc(Cl)c2N2CCNCC21

>  <standard_type>  (595) 
Ki

>  <standard_relation>  (595) 
=

>  <standard_value>  (595) 
6.31

>  <standard_units>  (595) 
nM

>  <target_pref_name>  (595) 
Serotonin 2b (5-HT2b) receptor

>  <target_chembl_id>  (595) 
CHEMBL1833

>  <target_organism>  (595) 
Homo sapiens

>  <pchembl_median>  (595) 
6.12

$$$$
CHEMBL4072722
     RDKit          2D

 24 25  0  0  0  0  0  0  0  0999 V2000
    3.7500   -1.2990    0.0000 C   0  0  0  0  0  0  0  0  0  0  0  0
    3.0000    0.0000    0.0000 O   0  0  0  0  0  0  0  0  0  0  0  0
    1.5000    0.0000    0.0000 C   0  0  0  0  0  0  0  0  0  0  0  0
    0.7500   -1.2990    0.0000 C   0  0  0  0  0  0  0  0  0  0  0  0
   -0.7500   -1.2990    0.0000 C   0  0  0  0  0  0  0  0  0  0  0  0
   -1.5000    0.0000    0.0000 C   0  0  0  0  0  0  0  0  0  0  0  0
   -0.7500    1.2990    0.0000 C   0  0  0  0  0  0  0  0  0  0  0  0
    0.7500    1.2990    0.0000 C   0  0  0  0  0  0  0  0  0  0  0  0
    1.5000    2.5981    0.0000 C   0  0  0  0  0  0  0  0  0  0  0  0
    3.0000    2.5981    0.0000 N   0  0  0  0  0  0  0  0  0  0  0  0
    3.7500    3.8971    0.0000 C   0  0  0  0  0  0  0  0  0  0  0  0
    5.2500    3.8971    0.0000 C   0  0  0  0  0  0  0  0  0  0  0  0
    6.5490    4.6471    0.0000 C   0  0  0  0  0  0  0  0  0  0  0  0
    6.5490    3.1471    0.0000 C   0  0  0  0  0  0  0  0  0  0  0  0
    7.2990    1.8481    0.0000 C   0  0  0  0  0  0  0  0  0  0  0  0
    6.5490    0.5490    0.0000 C   0  0  0  0  0  0  0  0  0  0  0  0
    7.2990   -0.7500    0.0000 C   0  0  0  0  0  0  0  0  0  0  0  0
    6.5490   -2.0490    0.0000 F   0  0  0  0  0  0  0  0  0  0  0  0
    8.7990   -0.7500    0.0000 C   0  0  0  0  0  0  0  0  0  0  0  0
    9.5490    0.5490    0.0000 C   0  0  0  0  0  0  0  0  0  0  0  0
    8.7990    1.8481    0.0000 C   0  0  0  0  0  0  0  0  0  0  0  0
    9.5490    3.1471    0.0000 O   0  0  0  0  0  0  0  0  0  0  0  0
   11.0490    3.1471    0.0000 C   0  0  0  0  0  0  0  0  0  0  0  0
    0.0000    5.6471    0.0000 Cl  0  0  0  0  0  0  0  0  0  0  0  0
  1  2  1  0
  2  3  1  0
  3  4  2  0
  4  5  1  0
  5  6  2  0
  6  7  1  0
  7  8  2  0
  8  9  1  0
  9 10  1  0
 10 11  1  0
 12 11  1  1
 12 13  1  0
 13 14  1  0
 14 15  1  6
 15 16  2  0
 16 17  1  0
 17 18  1  0
 17 19  2  0
 19 20  1  0
 20 21  2  0
 21 22  1  0
 22 23  1  0
  8  3  1  0
 14 12  1  0
 21 15  1  0
M  END
>  <assay_chembl_id>  (596) 
CHEMBL4013767

>  <assay_description>  (596) 
Displacement of [3H]-LSD from human 5-HT2B receptor expressed in HEKT cells after 90 mins by scintillation counting method

>  <parent_molecule_chembl_id>  (596) 
CHEMBL4117953

>  <canonical_smiles>  (596) 
COc1ccccc1CNC[C@H]1C[C@@H]1c1cc(F)ccc1OC.Cl

>  <standard_type>  (596) 
Ki

>  <standard_relation>  (596) 
=

>  <standard_value>  (596) 
411.0

>  <standard_units>  (596) 
nM

>  <target_pref_name>  (596) 
Serotonin 2b (5-HT2b) receptor

>  <target_chembl_id>  (596) 
CHEMBL1833

>  <target_organism>  (596) 
Homo sapiens

>  <pchembl_median>  (596) 
5.8

$$$$
CHEMBL4066784
     RDKit          2D

 35 38  0  0  0  0  0  0  0  0999 V2000
    3.0000    0.0000    0.0000 C   0  0  0  0  0  0  0  0  0  0  0  0
    1.5000    0.0000    0.0000 C   0  0  0  0  0  0  0  0  0  0  0  0
    0.7500   -1.2990    0.0000 C   0  0  0  0  0  0  0  0  0  0  0  0
   -0.7500   -1.2990    0.0000 C   0  0  0  0  0  0  0  0  0  0  0  0
   -1.5000    0.0000    0.0000 C   0  0  0  0  0  0  0  0  0  0  0  0
   -0.7500    1.2990    0.0000 C   0  0  0  0  0  0  0  0  0  0  0  0
   -1.5000    2.5981    0.0000 Cl  0  0  0  0  0  0  0  0  0  0  0  0
    0.7500    1.2990    0.0000 C   0  0  0  0  0  0  0  0  0  0  0  0
    1.5000    2.5981    0.0000 C   0  0  0  0  0  0  0  0  0  0  0  0
    0.8899    3.9684    0.0000 N   0  0  0  0  0  0  0  0  0  0  0  0
    2.0046    4.9721    0.0000 C   0  0  0  0  0  0  0  0  0  0  0  0
    1.8478    6.4639    0.0000 C   0  0  0  0  0  0  0  0  0  0  0  0
    3.0613    7.3456    0.0000 N   0  0  0  0  0  0  0  0  0  0  0  0
    4.4317    6.7354    0.0000 C   0  0  0  0  0  0  0  0  0  0  0  0
    5.6452    7.6171    0.0000 C   0  0  0  0  0  0  0  0  0  0  0  0
    5.4884    9.1089    0.0000 C   0  0  0  0  0  0  0  0  0  0  0  0
    6.7019    9.9906    0.0000 C   0  0  0  0  0  0  0  0  0  0  0  0
    6.5451   11.4824    0.0000 O   0  0  0  0  0  0  0  0  0  0  0  0
    8.0722    9.3805    0.0000 N   0  0  0  0  0  0  0  0  0  0  0  0
    9.2858   10.2622    0.0000 C   0  0  0  0  0  0  0  0  0  0  0  0
   10.6561    9.6521    0.0000 C   0  0  0  0  0  0  0  0  0  0  0  0
   11.8696   10.5337    0.0000 C   0  0  0  0  0  0  0  0  0  0  0  0
   13.2399    9.9236    0.0000 N   0  0  0  0  0  0  0  0  0  0  0  0
   13.3967    8.4318    0.0000 C   0  0  0  0  0  0  0  0  0  0  0  0
   14.7670    7.8217    0.0000 C   0  0  0  0  0  0  0  0  0  0  0  0
   14.9238    6.3300    0.0000 C   0  0  0  0  0  0  0  0  0  0  0  0
   15.9806    8.7034    0.0000 C   0  0  0  0  0  0  0  0  0  0  0  0
   15.8238   10.1952    0.0000 C   0  0  0  0  0  0  0  0  0  0  0  0
   17.0373   11.0769    0.0000 C   0  0  0  0  0  0  0  0  0  0  0  0
   14.4535   10.8053    0.0000 C   0  0  0  0  0  0  0  0  0  0  0  0
    4.1181    9.7190    0.0000 C   0  0  0  0  0  0  0  0  0  0  0  0
    2.9046    8.8373    0.0000 C   0  0  0  0  0  0  0  0  0  0  0  0
    3.3037    4.2221    0.0000 C   0  0  0  0  0  0  0  0  0  0  0  0
    4.6740    4.8322    0.0000 C   0  0  0  0  0  0  0  0  0  0  0  0
    2.9918    2.7549    0.0000 O   0  0  0  0  0  0  0  0  0  0  0  0
  1  2  1  0
  2  3  2  0
  3  4  1  0
  4  5  2  0
  5  6  1  0
  6  7  1  0
  6  8  2  0
  8  9  1  0
  9 10  2  0
 10 11  1  0
 11 12  1  0
 12 13  1  0
 13 14  1  0
 14 15  1  0
 15 16  1  0
 16 17  1  0
 17 18  2  0
 17 19  1  0
 19 20  1  0
 20 21  1  0
 21 22  1  0
 22 23  1  0
 23 24  1  0
 24 25  1  0
 25 26  1  6
 25 27  1  0
 27 28  1  0
 28 29  1  6
 28 30  1  0
 16 31  1  0
 31 32  1  0
 11 33  2  0
 33 34  1  0
 33 35  1  0
  8  2  1  0
 35  9  1  0
 32 13  1  0
 30 23  1  0
M  END
>  <assay_chembl_id>  (597) 
CHEMBL4039794

>  <assay_description>  (597) 
Displacement of [3H]LSD from human 5-HT2B receptor expressed in HEK cell membranes after 90 mins by scintillation counting method

>  <parent_molecule_chembl_id>  (597) 
CHEMBL4066784

>  <canonical_smiles>  (597) 
Cc1cccc(Cl)c1-c1nc(CN2CCC(C(=O)NCCCN3C[C@@H](C)C[C@@H](C)C3)CC2)c(C)o1

>  <standard_type>  (597) 
Ki

>  <standard_relation>  (597) 
=

>  <standard_value>  (597) 
415.0

>  <standard_units>  (597) 
nM

>  <target_pref_name>  (597) 
Serotonin 2b (5-HT2b) receptor

>  <target_chembl_id>  (597) 
CHEMBL1833

>  <target_organism>  (597) 
Homo sapiens

>  <pchembl_median>  (597) 
7.7

$$$$
CHEMBL639
     RDKit          2D

 27 30  0  0  0  0  0  0  0  0999 V2000
   -5.0319   -8.5119    0.0000 C   0  0  0  0  0  0  0  0  0  0  0  0
   -3.7925   -7.6669    0.0000 N   0  0  0  0  0  0  0  0  0  0  0  0
   -2.4935   -8.4169    0.0000 C   0  0  0  0  0  0  0  0  0  0  0  0
   -1.0972   -7.8689    0.0000 C   0  0  0  0  0  0  0  0  0  0  0  0
   -0.6550   -6.4355    0.0000 C   0  0  0  0  0  0  0  0  0  0  0  0
   -1.5000   -5.1962    0.0000 C   0  0  0  0  0  0  0  0  0  0  0  0
   -0.7500   -3.8971    0.0000 N   0  0  0  0  0  0  0  0  0  0  0  0
    0.7500   -3.8971    0.0000 N   0  0  0  0  0  0  0  0  0  0  0  0
    1.5000   -2.5981    0.0000 C   0  0  0  0  0  0  0  0  0  0  0  0
    3.0000   -2.5981    0.0000 C   0  0  0  0  0  0  0  0  0  0  0  0
    3.7500   -3.8971    0.0000 C   0  0  0  0  0  0  0  0  0  0  0  0
    3.0000   -5.1962    0.0000 C   0  0  0  0  0  0  0  0  0  0  0  0
    3.7500   -6.4952    0.0000 C   0  0  0  0  0  0  0  0  0  0  0  0
    5.2500   -6.4952    0.0000 C   0  0  0  0  0  0  0  0  0  0  0  0
    6.0000   -7.7942    0.0000 Cl  0  0  0  0  0  0  0  0  0  0  0  0
    6.0000   -5.1962    0.0000 C   0  0  0  0  0  0  0  0  0  0  0  0
    5.2500   -3.8971    0.0000 C   0  0  0  0  0  0  0  0  0  0  0  0
    0.7500   -1.2990    0.0000 C   0  0  0  0  0  0  0  0  0  0  0  0
    1.5000    0.0000    0.0000 C   0  0  0  0  0  0  0  0  0  0  0  0
    0.7500    1.2990    0.0000 C   0  0  0  0  0  0  0  0  0  0  0  0
   -0.7500    1.2990    0.0000 C   0  0  0  0  0  0  0  0  0  0  0  0
   -1.5000    0.0000    0.0000 C   0  0  0  0  0  0  0  0  0  0  0  0
   -0.7500   -1.2990    0.0000 C   0  0  0  0  0  0  0  0  0  0  0  0
   -1.5000   -2.5981    0.0000 C   0  0  0  0  0  0  0  0  0  0  0  0
   -3.0000   -2.5981    0.0000 O   0  0  0  0  0  0  0  0  0  0  0  0
   -2.9958   -5.0841    0.0000 C   0  0  0  0  0  0  0  0  0  0  0  0
   -4.0161   -6.1836    0.0000 C   0  0  0  0  0  0  0  0  0  0  0  0
  1  2  1  0
  2  3  1  0
  3  4  1  0
  4  5  1  0
  5  6  1  0
  6  7  1  0
  7  8  1  0
  8  9  2  0
  9 10  1  0
 10 11  1  0
 11 12  2  0
 12 13  1  0
 13 14  2  0
 14 15  1  0
 14 16  1  0
 16 17  2  0
  9 18  1  0
 18 19  2  0
 19 20  1  0
 20 21  2  0
 21 22  1  0
 22 23  2  0
 23 24  1  0
 24 25  2  0
  6 26  1  0
 26 27  1  0
 27  2  1  0
 24  7  1  0
 17 11  1  0
 23 18  1  0
M  END
>  <assay_chembl_id>  (598) 
CHEMBL4047795

>  <assay_description>  (598) 
Displacement of [3H]mesulergine from recombinant human 5-ht2B expressed in CHO cells

>  <parent_molecule_chembl_id>  (598) 
CHEMBL639

>  <canonical_smiles>  (598) 
CN1CCCC(n2nc(Cc3ccc(Cl)cc3)c3ccccc3c2=O)CC1

>  <standard_type>  (598) 
Ki

>  <standard_relation>  (598) 
=

>  <standard_value>  (598) 
19.95

>  <standard_units>  (598) 
nM

>  <target_pref_name>  (598) 
Serotonin 2b (5-HT2b) receptor

>  <target_chembl_id>  (598) 
CHEMBL1833

>  <target_organism>  (598) 
Homo sapiens

>  <pchembl_median>  (598) 
6.53

$$$$
CHEMBL4088036
     RDKit          2D

 33 33  0  0  0  0  0  0  0  0999 V2000
   -5.2500   -6.4952    0.0000 C   0  0  0  0  0  0  0  0  0  0  0  0
   -3.7500   -6.4952    0.0000 C   0  0  0  0  0  0  0  0  0  0  0  0
   -3.0000   -5.1962    0.0000 C   0  0  0  0  0  0  0  0  0  0  0  0
   -1.5000   -5.1962    0.0000 C   0  0  0  0  0  0  0  0  0  0  0  0
   -0.7500   -3.8971    0.0000 C   0  0  0  0  0  0  0  0  0  0  0  0
    0.7500   -3.8971    0.0000 C   0  0  0  0  0  0  0  0  0  0  0  0
    1.5000   -2.5981    0.0000 C   0  0  0  0  0  0  0  0  0  0  0  0
    3.0000   -2.5981    0.0000 O   0  0  0  0  0  0  0  0  0  0  0  0
    3.7500   -3.8971    0.0000 C   0  0  0  0  0  0  0  0  0  0  0  0
    3.0000   -5.1962    0.0000 C   0  0  0  0  0  0  0  0  0  0  0  0
    3.7500   -6.4952    0.0000 C   0  0  0  0  0  0  0  0  0  0  0  0
    5.2500   -6.4952    0.0000 N   0  0  0  0  0  0  0  0  0  0  0  0
    6.0000   -7.7942    0.0000 C   0  0  0  0  0  0  0  0  0  0  0  0
    5.2500   -9.0933    0.0000 C   0  0  0  0  0  0  0  0  0  0  0  0
    6.0000  -10.3923    0.0000 C   0  0  0  0  0  0  0  0  0  0  0  0
    5.2500  -11.6913    0.0000 C   0  0  0  0  0  0  0  0  0  0  0  0
    6.0000  -12.9904    0.0000 N   0  0  0  0  0  0  0  0  0  0  0  0
    5.2500  -14.2894    0.0000 S   0  0  0  0  0  0  0  0  0  0  0  0
    3.9510  -13.5394    0.0000 O   0  0  0  0  0  0  0  0  0  0  0  0
    6.5490  -15.0394    0.0000 O   0  0  0  0  0  0  0  0  0  0  0  0
    4.5000  -15.5885    0.0000 C   0  0  0  0  0  0  0  0  0  0  0  0
    3.0000  -15.5885    0.0000 C   0  0  0  0  0  0  0  0  0  0  0  0
    6.0000   -5.1962    0.0000 C   0  0  0  0  0  0  0  0  0  0  0  0
    5.2500   -3.8971    0.0000 C   0  0  0  0  0  0  0  0  0  0  0  0
    0.7500   -1.2990    0.0000 C   0  0  0  0  0  0  0  0  0  0  0  0
    1.5000    0.0000    0.0000 N   0  0  0  0  0  0  0  0  0  0  0  0
    0.7500    1.2990    0.0000 C   0  0  0  0  0  0  0  0  0  0  0  0
   -0.7500    1.2990    0.0000 C   0  0  0  0  0  0  0  0  0  0  0  0
   -1.5000    0.0000    0.0000 C   0  0  0  0  0  0  0  0  0  0  0  0
   -0.7500   -1.2990    0.0000 C   0  0  0  0  0  0  0  0  0  0  0  0
   -1.5000   -2.5981    0.0000 C   0  0  0  0  0  0  0  0  0  0  0  0
    7.5490    0.0000    0.0000 Cl  0  0  0  0  0  0  0  0  0  0  0  0
    8.5490    0.0000    0.0000 Cl  0  0  0  0  0  0  0  0  0  0  0  0
  1  2  1  0
  2  3  1  0
  3  4  1  0
  4  5  1  0
  5  6  2  0
  6  7  1  0
  7  8  1  0
  8  9  1  0
  9 10  1  0
 10 11  1  0
 11 12  1  0
 12 13  1  0
 13 14  1  0
 14 15  1  0
 15 16  1  0
 16 17  1  0
 17 18  1  0
 18 19  2  0
 18 20  2  0
 18 21  1  0
 21 22  1  0
 12 23  1  0
 23 24  1  0
  7 25  2  0
 25 26  1  0
 26 27  2  0
 27 28  1  0
 28 29  2  0
 29 30  1  0
 30 31  2  0
 31  5  1  0
 24  9  1  0
 30 25  1  0
M  END
>  <assay_chembl_id>  (599) 
CHEMBL4047795

>  <assay_description>  (599) 
Displacement of [3H]mesulergine from recombinant human 5-ht2B expressed in CHO cells

>  <parent_molecule_chembl_id>  (599) 
CHEMBL4117406

>  <canonical_smiles>  (599) 
CCCCc1cc(OC2CCN(CCCCNS(=O)(=O)CC)CC2)c2ncccc2c1.Cl.Cl

>  <standard_type>  (599) 
Ki

>  <standard_relation>  (599) 
=

>  <standard_value>  (599) 
794.33

>  <standard_units>  (599) 
nM

>  <target_pref_name>  (599) 
Serotonin 2b (5-HT2b) receptor

>  <target_chembl_id>  (599) 
CHEMBL1833

>  <target_organism>  (599) 
Homo sapiens

>  <pchembl_median>  (599) 
5.96

$$$$
CHEMBL4169752
     RDKit          2D

 23 26  0  0  0  0  0  0  0  0999 V2000
   -0.7500   -6.4952    0.0000 C   0  0  0  0  0  0  0  0  0  0  0  0
   -1.5000   -5.1962    0.0000 C   0  0  0  0  0  0  0  0  0  0  0  0
   -0.7500   -3.8971    0.0000 C   0  0  0  0  0  0  0  0  0  0  0  0
    0.7500   -3.8971    0.0000 C   0  0  0  0  0  0  0  0  0  0  0  0
    1.5000   -2.5981    0.0000 C   0  0  0  0  0  0  0  0  0  0  0  0
    0.7500   -1.2990    0.0000 N   0  0  0  0  0  0  0  0  0  0  0  0
    1.5000    0.0000    0.0000 C   0  0  0  0  0  0  0  0  0  0  0  0
    0.7500    1.2990    0.0000 C   0  0  0  0  0  0  0  0  0  0  0  0
   -0.7500    1.2990    0.0000 C   0  0  0  0  0  0  0  0  0  0  0  0
   -1.5000    2.5981    0.0000 C   0  0  0  0  0  0  0  0  0  0  0  0
   -3.0000    2.5981    0.0000 C   0  0  0  0  0  0  0  0  0  0  0  0
   -3.7500    3.8971    0.0000 N   0  0  0  0  0  0  0  0  0  0  0  0
   -3.0000    5.1962    0.0000 C   0  0  0  0  0  0  0  0  0  0  0  0
   -3.7500    6.4952    0.0000 C   0  0  0  0  0  0  0  0  0  0  0  0
   -5.2500    6.4952    0.0000 O   0  0  0  0  0  0  0  0  0  0  0  0
   -6.0000    5.1962    0.0000 C   0  0  0  0  0  0  0  0  0  0  0  0
   -5.2500    3.8971    0.0000 C   0  0  0  0  0  0  0  0  0  0  0  0
   -3.7500    1.2990    0.0000 C   0  0  0  0  0  0  0  0  0  0  0  0
   -3.0000    0.0000    0.0000 C   0  0  0  0  0  0  0  0  0  0  0  0
   -1.5000    0.0000    0.0000 C   0  0  0  0  0  0  0  0  0  0  0  0
   -0.7500   -1.2990    0.0000 C   0  0  0  0  0  0  0  0  0  0  0  0
    1.5000   -5.1962    0.0000 C   0  0  0  0  0  0  0  0  0  0  0  0
    0.7500   -6.4952    0.0000 C   0  0  0  0  0  0  0  0  0  0  0  0
  1  2  2  0
  2  3  1  0
  3  4  2  0
  4  5  1  0
  5  6  1  0
  6  7  1  0
  7  8  1  0
  8  9  1  0
  9 10  2  0
 10 11  1  0
 11 12  1  0
 12 13  1  0
 13 14  1  0
 14 15  1  0
 15 16  1  0
 16 17  1  0
 11 18  2  0
 18 19  1  0
 19 20  2  0
 20 21  1  0
  4 22  1  0
 22 23  2  0
 23  1  1  0
 21  6  1  0
 20  9  1  0
 17 12  1  0
M  END
>  <assay_chembl_id>  (600) 
CHEMBL4153382

>  <assay_description>  (600) 
Displacement of [3H]-LSD from human 5-HT2B receptor expressed in stable HEK cells after 90 mins by microbeta scintillation counting method

>  <parent_molecule_chembl_id>  (600) 
CHEMBL4169752

>  <canonical_smiles>  (600) 
c1ccc(CN2CCc3cc(N4CCOCC4)ccc3C2)cc1

>  <standard_type>  (600) 
Ki

>  <standard_relation>  (600) 
=

>  <standard_value>  (600) 
360.0

>  <standard_units>  (600) 
nM

>  <target_pref_name>  (600) 
Serotonin 2b (5-HT2b) receptor

>  <target_chembl_id>  (600) 
CHEMBL1833

>  <target_organism>  (600) 
Homo sapiens

>  <pchembl_median>  (600) 
6.08

$$$$
CHEMBL4167315
     RDKit          2D

 24 27  0  0  0  0  0  0  0  0999 V2000
    6.0000   -5.1962    0.0000 C   0  0  0  0  0  0  0  0  0  0  0  0
    5.2500   -3.8971    0.0000 O   0  0  0  0  0  0  0  0  0  0  0  0
    3.7500   -3.8971    0.0000 C   0  0  0  0  0  0  0  0  0  0  0  0
    3.0000   -5.1962    0.0000 C   0  0  0  0  0  0  0  0  0  0  0  0
    1.5000   -5.1962    0.0000 C   0  0  0  0  0  0  0  0  0  0  0  0
    0.7500   -3.8971    0.0000 C   0  0  0  0  0  0  0  0  0  0  0  0
    1.5000   -2.5981    0.0000 C   0  0  0  0  0  0  0  0  0  0  0  0
    0.7500   -1.2990    0.0000 C   0  0  0  0  0  0  0  0  0  0  0  0
    1.5000    0.0000    0.0000 C   0  0  0  0  0  0  0  0  0  0  0  0
    0.7500    1.2990    0.0000 C   0  0  0  0  0  0  0  0  0  0  0  0
   -0.7500    1.2990    0.0000 C   0  0  0  0  0  0  0  0  0  0  0  0
   -1.5000    0.0000    0.0000 C   0  0  0  0  0  0  0  0  0  0  0  0
   -0.7500   -1.2990    0.0000 C   0  0  0  0  0  0  0  0  0  0  0  0
   -2.9672    0.3119    0.0000 C   0  0  0  0  0  0  0  0  0  0  0  0
   -3.1240    1.8037    0.0000 N   0  0  0  0  0  0  0  0  0  0  0  0
   -4.4231    2.5537    0.0000 C   0  0  0  0  0  0  0  0  0  0  0  0
   -4.4231    4.0537    0.0000 C   0  0  0  0  0  0  0  0  0  0  0  0
   -3.1240    4.8037    0.0000 C   0  0  0  0  0  0  0  0  0  0  0  0
   -3.1240    6.3037    0.0000 C   0  0  0  0  0  0  0  0  0  0  0  0
   -4.4231    7.0537    0.0000 C   0  0  0  0  0  0  0  0  0  0  0  0
   -5.7221    6.3037    0.0000 C   0  0  0  0  0  0  0  0  0  0  0  0
   -5.7221    4.8037    0.0000 C   0  0  0  0  0  0  0  0  0  0  0  0
   -1.7537    2.4138    0.0000 C   0  0  0  0  0  0  0  0  0  0  0  0
    3.0000   -2.5981    0.0000 C   0  0  0  0  0  0  0  0  0  0  0  0
  1  2  1  0
  2  3  1  0
  3  4  2  0
  4  5  1  0
  5  6  2  0
  6  7  1  0
  7  8  1  0
  8  9  2  0
  9 10  1  0
 10 11  2  0
 11 12  1  0
 12 13  2  0
 12 14  1  0
 14 15  1  0
 15 16  1  0
 16 17  1  0
 17 18  2  0
 18 19  1  0
 19 20  2  0
 20 21  1  0
 21 22  2  0
 15 23  1  0
  7 24  2  0
 24  3  1  0
 13  8  1  0
 22 17  1  0
 23 11  1  0
M  END
>  <assay_chembl_id>  (601) 
CHEMBL4153382

>  <assay_description>  (601) 
Displacement of [3H]-LSD from human 5-HT2B receptor expressed in stable HEK cells after 90 mins by microbeta scintillation counting method

>  <parent_molecule_chembl_id>  (601) 
CHEMBL4167315

>  <canonical_smiles>  (601) 
COc1cccc(-c2ccc3c(c2)CN(Cc2ccccc2)C3)c1

>  <standard_type>  (601) 
Ki

>  <standard_relation>  (601) 
=

>  <standard_value>  (601) 
389.5

>  <standard_units>  (601) 
nM

>  <target_pref_name>  (601) 
Serotonin 2b (5-HT2b) receptor

>  <target_chembl_id>  (601) 
CHEMBL1833

>  <target_organism>  (601) 
Homo sapiens

>  <pchembl_median>  (601) 
6.82

$$$$
CHEMBL4160064
     RDKit          2D

 25 28  0  0  0  0  0  0  0  0999 V2000
    6.0000   -5.1962    0.0000 C   0  0  0  0  0  0  0  0  0  0  0  0
    5.2500   -3.8971    0.0000 O   0  0  0  0  0  0  0  0  0  0  0  0
    3.7500   -3.8971    0.0000 C   0  0  0  0  0  0  0  0  0  0  0  0
    3.0000   -5.1962    0.0000 C   0  0  0  0  0  0  0  0  0  0  0  0
    1.5000   -5.1962    0.0000 C   0  0  0  0  0  0  0  0  0  0  0  0
    0.7500   -3.8971    0.0000 C   0  0  0  0  0  0  0  0  0  0  0  0
    1.5000   -2.5981    0.0000 C   0  0  0  0  0  0  0  0  0  0  0  0
    0.7500   -1.2990    0.0000 C   0  0  0  0  0  0  0  0  0  0  0  0
    1.5000    0.0000    0.0000 C   0  0  0  0  0  0  0  0  0  0  0  0
    0.7500    1.2990    0.0000 C   0  0  0  0  0  0  0  0  0  0  0  0
   -0.7500    1.2990    0.0000 C   0  0  0  0  0  0  0  0  0  0  0  0
   -1.5000    0.0000    0.0000 C   0  0  0  0  0  0  0  0  0  0  0  0
   -0.7500   -1.2990    0.0000 C   0  0  0  0  0  0  0  0  0  0  0  0
   -3.0000    0.0000    0.0000 C   0  0  0  0  0  0  0  0  0  0  0  0
   -3.7500    1.2990    0.0000 C   0  0  0  0  0  0  0  0  0  0  0  0
   -3.0000    2.5981    0.0000 N   0  0  0  0  0  0  0  0  0  0  0  0
   -3.7500    3.8971    0.0000 C   0  0  0  0  0  0  0  0  0  0  0  0
   -3.0000    5.1962    0.0000 C   0  0  0  0  0  0  0  0  0  0  0  0
   -1.5000    5.1962    0.0000 C   0  0  0  0  0  0  0  0  0  0  0  0
   -0.7500    6.4952    0.0000 C   0  0  0  0  0  0  0  0  0  0  0  0
   -1.5000    7.7942    0.0000 C   0  0  0  0  0  0  0  0  0  0  0  0
   -3.0000    7.7942    0.0000 C   0  0  0  0  0  0  0  0  0  0  0  0
   -3.7500    6.4952    0.0000 C   0  0  0  0  0  0  0  0  0  0  0  0
   -1.5000    2.5981    0.0000 C   0  0  0  0  0  0  0  0  0  0  0  0
    3.0000   -2.5981    0.0000 C   0  0  0  0  0  0  0  0  0  0  0  0
  1  2  1  0
  2  3  1  0
  3  4  2  0
  4  5  1  0
  5  6  2  0
  6  7  1  0
  7  8  1  0
  8  9  2  0
  9 10  1  0
 10 11  2  0
 11 12  1  0
 12 13  2  0
 12 14  1  0
 14 15  1  0
 15 16  1  0
 16 17  1  0
 17 18  1  0
 18 19  2  0
 19 20  1  0
 20 21  2  0
 21 22  1  0
 22 23  2  0
 16 24  1  0
  7 25  2  0
 25  3  1  0
 13  8  1  0
 23 18  1  0
 24 11  1  0
M  END
>  <assay_chembl_id>  (602) 
CHEMBL4153382

>  <assay_description>  (602) 
Displacement of [3H]-LSD from human 5-HT2B receptor expressed in stable HEK cells after 90 mins by microbeta scintillation counting method

>  <parent_molecule_chembl_id>  (602) 
CHEMBL4160064

>  <canonical_smiles>  (602) 
COc1cccc(-c2ccc3c(c2)CCN(Cc2ccccc2)C3)c1

>  <standard_type>  (602) 
Ki

>  <standard_relation>  (602) 
=

>  <standard_value>  (602) 
65.0

>  <standard_units>  (602) 
nM

>  <target_pref_name>  (602) 
Serotonin 2b (5-HT2b) receptor

>  <target_chembl_id>  (602) 
CHEMBL1833

>  <target_organism>  (602) 
Homo sapiens

>  <pchembl_median>  (602) 
5.54

$$$$
CHEMBL4163428
     RDKit          2D

 26 29  0  0  0  0  0  0  0  0999 V2000
    3.7500   -6.4952    0.0000 C   0  0  0  0  0  0  0  0  0  0  0  0
    3.0000   -5.1962    0.0000 N   0  0  0  0  0  0  0  0  0  0  0  0
    1.5000   -5.1962    0.0000 C   0  0  0  0  0  0  0  0  0  0  0  0
    0.7500   -3.8971    0.0000 C   0  0  0  0  0  0  0  0  0  0  0  0
    1.5000   -2.5981    0.0000 N   0  0  0  0  0  0  0  0  0  0  0  0
    0.7500   -1.2990    0.0000 C   0  0  0  0  0  0  0  0  0  0  0  0
    1.5000    0.0000    0.0000 C   0  0  0  0  0  0  0  0  0  0  0  0
    0.7500    1.2990    0.0000 C   0  0  0  0  0  0  0  0  0  0  0  0
   -0.7500    1.2990    0.0000 C   0  0  0  0  0  0  0  0  0  0  0  0
   -1.5000    0.0000    0.0000 C   0  0  0  0  0  0  0  0  0  0  0  0
   -0.7500   -1.2990    0.0000 C   0  0  0  0  0  0  0  0  0  0  0  0
   -2.9672    0.3119    0.0000 C   0  0  0  0  0  0  0  0  0  0  0  0
   -3.1240    1.8037    0.0000 N   0  0  0  0  0  0  0  0  0  0  0  0
   -4.4231    2.5537    0.0000 C   0  0  0  0  0  0  0  0  0  0  0  0
   -5.7221    1.8037    0.0000 O   0  0  0  0  0  0  0  0  0  0  0  0
   -4.4231    4.0537    0.0000 O   0  0  0  0  0  0  0  0  0  0  0  0
   -5.7221    4.8037    0.0000 C   0  0  0  0  0  0  0  0  0  0  0  0
   -5.7221    6.3037    0.0000 C   0  0  0  0  0  0  0  0  0  0  0  0
   -4.4231    7.0537    0.0000 C   0  0  0  0  0  0  0  0  0  0  0  0
   -4.4231    8.5537    0.0000 C   0  0  0  0  0  0  0  0  0  0  0  0
   -5.7221    9.3037    0.0000 C   0  0  0  0  0  0  0  0  0  0  0  0
   -7.0211    8.5537    0.0000 C   0  0  0  0  0  0  0  0  0  0  0  0
   -7.0211    7.0537    0.0000 C   0  0  0  0  0  0  0  0  0  0  0  0
   -1.7537    2.4138    0.0000 C   0  0  0  0  0  0  0  0  0  0  0  0
    3.0000   -2.5981    0.0000 C   0  0  0  0  0  0  0  0  0  0  0  0
    3.7500   -3.8971    0.0000 C   0  0  0  0  0  0  0  0  0  0  0  0
  1  2  1  0
  2  3  1  0
  3  4  1  0
  4  5  1  0
  5  6  1  0
  6  7  2  0
  7  8  1  0
  8  9  2  0
  9 10  1  0
 10 11  2  0
 10 12  1  0
 12 13  1  0
 13 14  1  0
 14 15  2  0
 14 16  1  0
 16 17  1  0
 17 18  1  0
 18 19  2  0
 19 20  1  0
 20 21  2  0
 21 22  1  0
 22 23  2  0
 13 24  1  0
  5 25  1  0
 25 26  1  0
 26  2  1  0
 11  6  1  0
 23 18  1  0
 24  9  1  0
M  END
>  <assay_chembl_id>  (603) 
CHEMBL4153382

>  <assay_description>  (603) 
Displacement of [3H]-LSD from human 5-HT2B receptor expressed in stable HEK cells after 90 mins by microbeta scintillation counting method

>  <parent_molecule_chembl_id>  (603) 
CHEMBL4163428

>  <canonical_smiles>  (603) 
CN1CCN(c2ccc3c(c2)CN(C(=O)OCc2ccccc2)C3)CC1

>  <standard_type>  (603) 
Ki

>  <standard_relation>  (603) 
=

>  <standard_value>  (603) 
1117.0

>  <standard_units>  (603) 
nM

>  <target_pref_name>  (603) 
Serotonin 2b (5-HT2b) receptor

>  <target_chembl_id>  (603) 
CHEMBL1833

>  <target_organism>  (603) 
Homo sapiens

>  <pchembl_median>  (603) 
6.13

$$$$
CHEMBL4165863
     RDKit          2D

 31 35  0  0  0  0  0  0  0  0999 V2000
    3.0000   -2.5981    0.0000 O   0  0  0  0  0  0  0  0  0  0  0  0
    1.5000   -2.5981    0.0000 C   0  0  0  0  0  0  0  0  0  0  0  0
    0.7500   -3.8971    0.0000 O   0  0  0  0  0  0  0  0  0  0  0  0
    1.5000   -5.1962    0.0000 C   0  0  0  0  0  0  0  0  0  0  0  0
    0.7500   -6.4952    0.0000 C   0  0  0  0  0  0  0  0  0  0  0  0
   -0.7500   -6.4952    0.0000 C   0  0  0  0  0  0  0  0  0  0  0  0
   -1.5000   -7.7942    0.0000 C   0  0  0  0  0  0  0  0  0  0  0  0
   -0.7500   -9.0933    0.0000 C   0  0  0  0  0  0  0  0  0  0  0  0
    0.7500   -9.0933    0.0000 C   0  0  0  0  0  0  0  0  0  0  0  0
    1.5000   -7.7942    0.0000 C   0  0  0  0  0  0  0  0  0  0  0  0
    0.7500   -1.2990    0.0000 N   0  0  0  0  0  0  0  0  0  0  0  0
    1.5000    0.0000    0.0000 C   0  0  0  0  0  0  0  0  0  0  0  0
    0.7500    1.2990    0.0000 C   0  0  0  0  0  0  0  0  0  0  0  0
   -0.7500    1.2990    0.0000 C   0  0  0  0  0  0  0  0  0  0  0  0
   -1.5000    2.5981    0.0000 C   0  0  0  0  0  0  0  0  0  0  0  0
   -3.0000    2.5981    0.0000 C   0  0  0  0  0  0  0  0  0  0  0  0
   -3.7500    1.2990    0.0000 C   0  0  0  0  0  0  0  0  0  0  0  0
   -5.2500    1.2990    0.0000 N   0  0  0  0  0  0  0  0  0  0  0  0
   -6.0000    2.5981    0.0000 C   0  0  0  0  0  0  0  0  0  0  0  0
   -7.5000    2.5981    0.0000 C   0  0  0  0  0  0  0  0  0  0  0  0
   -8.2500    1.2990    0.0000 N   0  0  0  0  0  0  0  0  0  0  0  0
   -9.7500    1.2990    0.0000 C   0  0  0  0  0  0  0  0  0  0  0  0
  -10.6317    0.0855    0.0000 C   0  0  0  0  0  0  0  0  0  0  0  0
  -12.0583    0.5490    0.0000 C   0  0  0  0  0  0  0  0  0  0  0  0
  -12.0583    2.0490    0.0000 C   0  0  0  0  0  0  0  0  0  0  0  0
  -10.6317    2.5126    0.0000 C   0  0  0  0  0  0  0  0  0  0  0  0
   -7.5000    0.0000    0.0000 C   0  0  0  0  0  0  0  0  0  0  0  0
   -6.0000    0.0000    0.0000 C   0  0  0  0  0  0  0  0  0  0  0  0
   -3.0000    0.0000    0.0000 C   0  0  0  0  0  0  0  0  0  0  0  0
   -1.5000    0.0000    0.0000 C   0  0  0  0  0  0  0  0  0  0  0  0
   -0.7500   -1.2990    0.0000 C   0  0  0  0  0  0  0  0  0  0  0  0
  1  2  2  0
  2  3  1  0
  3  4  1  0
  4  5  1  0
  5  6  2  0
  6  7  1  0
  7  8  2  0
  8  9  1  0
  9 10  2  0
  2 11  1  0
 11 12  1  0
 12 13  1  0
 13 14  1  0
 14 15  2  0
 15 16  1  0
 16 17  2  0
 17 18  1  0
 18 19  1  0
 19 20  1  0
 20 21  1  0
 21 22  1  0
 22 23  1  0
 23 24  1  0
 24 25  1  0
 25 26  1  0
 21 27  1  0
 27 28  1  0
 17 29  1  0
 29 30  2  0
 30 31  1  0
 10  5  1  0
 31 11  1  0
 30 14  1  0
 28 18  1  0
 26 22  1  0
M  END
>  <assay_chembl_id>  (604) 
CHEMBL4153382

>  <assay_description>  (604) 
Displacement of [3H]-LSD from human 5-HT2B receptor expressed in stable HEK cells after 90 mins by microbeta scintillation counting method

>  <parent_molecule_chembl_id>  (604) 
CHEMBL4165863

>  <canonical_smiles>  (604) 
O=C(OCc1ccccc1)N1CCc2ccc(N3CCN(C4CCCC4)CC3)cc2C1

>  <standard_type>  (604) 
Ki

>  <standard_relation>  (604) 
=

>  <standard_value>  (604) 
894.0

>  <standard_units>  (604) 
nM

>  <target_pref_name>  (604) 
Serotonin 2b (5-HT2b) receptor

>  <target_chembl_id>  (604) 
CHEMBL1833

>  <target_organism>  (604) 
Homo sapiens

>  <pchembl_median>  (604) 
6.84

$$$$
CHEMBL4169689
     RDKit          2D

 33 36  0  0  0  0  0  0  0  0999 V2000
    3.0000  -12.9904    0.0000 C   0  0  0  0  0  0  0  0  0  0  0  0
    3.7500  -11.6913    0.0000 C   0  0  0  0  0  0  0  0  0  0  0  0
    3.0000  -10.3923    0.0000 O   0  0  0  0  0  0  0  0  0  0  0  0
    3.7500   -9.0933    0.0000 C   0  0  0  0  0  0  0  0  0  0  0  0
    5.2500   -9.0933    0.0000 O   0  0  0  0  0  0  0  0  0  0  0  0
    3.0000   -7.7942    0.0000 C   0  0  0  0  0  0  0  0  0  0  0  0
    3.7500   -6.4952    0.0000 C   0  0  0  0  0  0  0  0  0  0  0  0
    3.0000   -5.1962    0.0000 N   0  0  0  0  0  0  0  0  0  0  0  0
    1.5000   -5.1962    0.0000 C   0  0  0  0  0  0  0  0  0  0  0  0
    0.7500   -3.8971    0.0000 C   0  0  0  0  0  0  0  0  0  0  0  0
    1.5000   -2.5981    0.0000 N   0  0  0  0  0  0  0  0  0  0  0  0
    0.7500   -1.2990    0.0000 C   0  0  0  0  0  0  0  0  0  0  0  0
    1.5000    0.0000    0.0000 C   0  0  0  0  0  0  0  0  0  0  0  0
    0.7500    1.2990    0.0000 C   0  0  0  0  0  0  0  0  0  0  0  0
   -0.7500    1.2990    0.0000 C   0  0  0  0  0  0  0  0  0  0  0  0
   -1.5000    0.0000    0.0000 C   0  0  0  0  0  0  0  0  0  0  0  0
   -0.7500   -1.2990    0.0000 C   0  0  0  0  0  0  0  0  0  0  0  0
   -3.0000    0.0000    0.0000 C   0  0  0  0  0  0  0  0  0  0  0  0
   -3.7500    1.2990    0.0000 N   0  0  0  0  0  0  0  0  0  0  0  0
   -5.2500    1.2990    0.0000 C   0  0  0  0  0  0  0  0  0  0  0  0
   -6.0000    0.0000    0.0000 O   0  0  0  0  0  0  0  0  0  0  0  0
   -6.0000    2.5981    0.0000 O   0  0  0  0  0  0  0  0  0  0  0  0
   -7.5000    2.5981    0.0000 C   0  0  0  0  0  0  0  0  0  0  0  0
   -8.2500    3.8971    0.0000 C   0  0  0  0  0  0  0  0  0  0  0  0
   -7.5000    5.1962    0.0000 C   0  0  0  0  0  0  0  0  0  0  0  0
   -8.2500    6.4952    0.0000 C   0  0  0  0  0  0  0  0  0  0  0  0
   -9.7500    6.4952    0.0000 C   0  0  0  0  0  0  0  0  0  0  0  0
  -10.5000    5.1962    0.0000 C   0  0  0  0  0  0  0  0  0  0  0  0
   -9.7500    3.8971    0.0000 C   0  0  0  0  0  0  0  0  0  0  0  0
   -3.0000    2.5981    0.0000 C   0  0  0  0  0  0  0  0  0  0  0  0
   -1.5000    2.5981    0.0000 C   0  0  0  0  0  0  0  0  0  0  0  0
    3.0000   -2.5981    0.0000 C   0  0  0  0  0  0  0  0  0  0  0  0
    3.7500   -3.8971    0.0000 C   0  0  0  0  0  0  0  0  0  0  0  0
  1  2  1  0
  2  3  1  0
  3  4  1  0
  4  5  2  0
  4  6  1  0
  6  7  1  0
  7  8  1  0
  8  9  1  0
  9 10  1  0
 10 11  1  0
 11 12  1  0
 12 13  2  0
 13 14  1  0
 14 15  2  0
 15 16  1  0
 16 17  2  0
 16 18  1  0
 18 19  1  0
 19 20  1  0
 20 21  2  0
 20 22  1  0
 22 23  1  0
 23 24  1  0
 24 25  2  0
 25 26  1  0
 26 27  2  0
 27 28  1  0
 28 29  2  0
 19 30  1  0
 30 31  1  0
 11 32  1  0
 32 33  1  0
 33  8  1  0
 17 12  1  0
 29 24  1  0
 31 15  1  0
M  END
>  <assay_chembl_id>  (605) 
CHEMBL4153382

>  <assay_description>  (605) 
Displacement of [3H]-LSD from human 5-HT2B receptor expressed in stable HEK cells after 90 mins by microbeta scintillation counting method

>  <parent_molecule_chembl_id>  (605) 
CHEMBL4169689

>  <canonical_smiles>  (605) 
CCOC(=O)CCN1CCN(c2ccc3c(c2)CN(C(=O)OCc2ccccc2)CC3)CC1

>  <standard_type>  (605) 
Ki

>  <standard_relation>  (605) 
=

>  <standard_value>  (605) 
505.0

>  <standard_units>  (605) 
nM

>  <target_pref_name>  (605) 
Serotonin 2b (5-HT2b) receptor

>  <target_chembl_id>  (605) 
CHEMBL1833

>  <target_organism>  (605) 
Homo sapiens

>  <pchembl_median>  (605) 
6.6

$$$$
CHEMBL4217398
     RDKit          2D

 58 63  0  0  0  0  0  0  0  0999 V2000
  -32.3376   -3.4782    0.0000 C   0  0  0  0  0  0  0  0  0  0  0  0
  -31.7275   -2.1079    0.0000 C   0  0  0  0  0  0  0  0  0  0  0  0
  -31.1174   -0.7375    0.0000 C   0  0  0  0  0  0  0  0  0  0  0  0
  -33.0978   -1.4978    0.0000 C   0  0  0  0  0  0  0  0  0  0  0  0
  -30.3572   -2.7180    0.0000 O   0  0  0  0  0  0  0  0  0  0  0  0
  -29.1436   -1.8363    0.0000 C   0  0  0  0  0  0  0  0  0  0  0  0
  -29.3004   -0.3445    0.0000 O   0  0  0  0  0  0  0  0  0  0  0  0
  -27.7733   -2.4464    0.0000 N   0  0  0  0  0  0  0  0  0  0  0  0
  -26.5598   -1.5647    0.0000 C   0  0  0  0  0  0  0  0  0  0  0  0
  -25.1895   -2.1748    0.0000 C   0  0  0  0  0  0  0  0  0  0  0  0
  -23.9760   -1.2931    0.0000 C   0  0  0  0  0  0  0  0  0  0  0  0
  -22.6056   -1.9033    0.0000 C   0  0  0  0  0  0  0  0  0  0  0  0
  -21.3921   -1.0216    0.0000 C   0  0  0  0  0  0  0  0  0  0  0  0
  -20.0218   -1.6317    0.0000 C   0  0  0  0  0  0  0  0  0  0  0  0
  -18.8083   -0.7500    0.0000 N   0  0  0  0  0  0  0  0  0  0  0  0
  -17.3817   -1.2135    0.0000 C   0  0  0  0  0  0  0  0  0  0  0  0
  -16.5000    0.0000    0.0000 C   0  0  0  0  0  0  0  0  0  0  0  0
  -15.0000    0.0000    0.0000 C   0  0  0  0  0  0  0  0  0  0  0  0
  -14.2500   -1.2990    0.0000 C   0  0  0  0  0  0  0  0  0  0  0  0
  -12.7500   -1.2990    0.0000 C   0  0  0  0  0  0  0  0  0  0  0  0
  -12.0000   -2.5981    0.0000 C   0  0  0  0  0  0  0  0  0  0  0  0
  -10.5000   -2.5981    0.0000 N   0  0  0  0  0  0  0  0  0  0  0  0
   -9.7500   -3.8971    0.0000 C   0  0  0  0  0  0  0  0  0  0  0  0
   -8.2500   -3.8971    0.0000 C   0  0  0  0  0  0  0  0  0  0  0  0
   -7.5000   -2.5981    0.0000 C   0  0  0  0  0  0  0  0  0  0  0  0
   -6.0000   -2.5981    0.0000 C   0  0  0  0  0  0  0  0  0  0  0  0
   -5.2500   -3.8971    0.0000 C   0  0  0  0  0  0  0  0  0  0  0  0
   -3.7500   -3.8971    0.0000 C   0  0  0  0  0  0  0  0  0  0  0  0
   -3.0000   -2.5981    0.0000 C   0  0  0  0  0  0  0  0  0  0  0  0
   -1.5000   -2.5981    0.0000 C   0  0  0  0  0  0  0  0  0  0  0  0
   -0.7500   -3.8971    0.0000 C   0  0  0  0  0  0  0  0  0  0  0  0
    0.7500   -3.8971    0.0000 C   0  0  0  0  0  0  0  0  0  0  0  0
    1.5000   -5.1962    0.0000 C   0  0  0  0  0  0  0  0  0  0  0  0
    3.0000   -5.1962    0.0000 O   0  0  0  0  0  0  0  0  0  0  0  0
    0.7500   -6.4952    0.0000 O   0  0  0  0  0  0  0  0  0  0  0  0
    1.5000   -2.5981    0.0000 C   0  0  0  0  0  0  0  0  0  0  0  0
    0.7500   -1.2990    0.0000 C   0  0  0  0  0  0  0  0  0  0  0  0
    1.5000    0.0000    0.0000 C   0  0  0  0  0  0  0  0  0  0  0  0
    0.7500    1.2990    0.0000 C   0  0  0  0  0  0  0  0  0  0  0  0
    1.5000    2.5981    0.0000 C   0  0  0  0  0  0  0  0  0  0  0  0
    3.0000    2.5981    0.0000 C   0  0  0  0  0  0  0  0  0  0  0  0
    3.7500    3.8971    0.0000 C   0  0  0  0  0  0  0  0  0  0  0  0
    3.0000    5.1962    0.0000 C   0  0  0  0  0  0  0  0  0  0  0  0
    3.7500    6.4952    0.0000 C   0  0  0  0  0  0  0  0  0  0  0  0
    4.5000    7.7942    0.0000 F   0  0  0  0  0  0  0  0  0  0  0  0
    5.0490    5.7452    0.0000 F   0  0  0  0  0  0  0  0  0  0  0  0
    2.4510    7.2452    0.0000 F   0  0  0  0  0  0  0  0  0  0  0  0
    1.5000    5.1962    0.0000 C   0  0  0  0  0  0  0  0  0  0  0  0
    0.7500    3.8971    0.0000 C   0  0  0  0  0  0  0  0  0  0  0  0
   -0.7500    1.2990    0.0000 C   0  0  0  0  0  0  0  0  0  0  0  0
   -1.5000    0.0000    0.0000 C   0  0  0  0  0  0  0  0  0  0  0  0
   -0.7500   -1.2990    0.0000 C   0  0  0  0  0  0  0  0  0  0  0  0
   -3.7500   -1.2990    0.0000 C   0  0  0  0  0  0  0  0  0  0  0  0
   -5.2500   -1.2990    0.0000 C   0  0  0  0  0  0  0  0  0  0  0  0
   -8.2500   -1.2990    0.0000 C   0  0  0  0  0  0  0  0  0  0  0  0
   -9.7500   -1.2990    0.0000 C   0  0  0  0  0  0  0  0  0  0  0  0
  -17.3817    1.2135    0.0000 N   0  0  0  0  0  0  0  0  0  0  0  0
  -18.8083    0.7500    0.0000 N   0  0  0  0  0  0  0  0  0  0  0  0
  1  2  1  0
  2  3  1  0
  2  4  1  0
  2  5  1  0
  5  6  1  0
  6  7  2  0
  6  8  1  0
  8  9  1  0
  9 10  1  0
 10 11  1  0
 11 12  1  0
 12 13  1  0
 13 14  1  0
 14 15  1  0
 15 16  1  0
 16 17  2  0
 17 18  1  0
 18 19  1  0
 19 20  1  0
 20 21  1  0
 21 22  1  0
 22 23  1  0
 23 24  1  0
 24 25  1  0
 25 26  1  0
 26 27  2  0
 27 28  1  0
 28 29  2  0
 29 30  1  0
 30 31  2  0
 31 32  1  0
 32 33  1  0
 33 34  2  0
 33 35  1  0
 32 36  2  0
 36 37  1  0
 37 38  2  0
 38 39  1  0
 39 40  1  0
 40 41  2  0
 41 42  1  0
 42 43  2  0
 43 44  1  0
 44 45  1  0
 44 46  1  0
 44 47  1  0
 43 48  1  0
 48 49  2  0
 39 50  2  0
 50 51  1  0
 51 52  2  0
 29 53  1  0
 53 54  2  0
 25 55  1  0
 55 56  1  0
 17 57  1  0
 57 58  2  0
 58 15  1  0
 56 22  1  0
 54 26  1  0
 52 30  1  0
 52 37  1  0
 49 40  1  0
M  END
>  <assay_chembl_id>  (606) 
CHEMBL4189968

>  <assay_description>  (606) 
Displacement of [3H]-LSD from human 5-HT2B receptor expressed in HEK293 cell membranes after 90 mins by scintillation counting method

>  <parent_molecule_chembl_id>  (606) 
CHEMBL4217398

>  <canonical_smiles>  (606) 
CC(C)(C)OC(=O)NCCCCCCn1cc(CCCCN2CCC(c3ccc(-c4cc(C(=O)O)cc5cc(-c6ccc(C(F)(F)F)cc6)ccc45)cc3)CC2)nn1

>  <standard_type>  (606) 
Ki

>  <standard_relation>  (606) 
=

>  <standard_value>  (606) 
2780.0

>  <standard_units>  (606) 
nM

>  <target_pref_name>  (606) 
Serotonin 2b (5-HT2b) receptor

>  <target_chembl_id>  (606) 
CHEMBL1833

>  <target_organism>  (606) 
Homo sapiens

>  <pchembl_median>  (606) 
5.72

$$$$
CHEMBL4216860
     RDKit          2D

 27 29  0  0  0  0  0  0  0  0999 V2000
    2.5910  -11.8209    0.0000 C   0  0  0  0  0  0  0  0  0  0  0  0
    1.3774  -10.9392    0.0000 O   0  0  0  0  0  0  0  0  0  0  0  0
    1.5342   -9.4474    0.0000 C   0  0  0  0  0  0  0  0  0  0  0  0
    2.9046   -8.8373    0.0000 O   0  0  0  0  0  0  0  0  0  0  0  0
    0.3207   -8.5658    0.0000 C   0  0  0  0  0  0  0  0  0  0  0  0
   -1.0496   -9.1759    0.0000 C   0  0  0  0  0  0  0  0  0  0  0  0
   -1.2064  -10.6676    0.0000 C   0  0  0  0  0  0  0  0  0  0  0  0
   -0.0917  -11.6713    0.0000 C   0  0  0  0  0  0  0  0  0  0  0  0
   -0.7018  -13.0417    0.0000 N   0  0  0  0  0  0  0  0  0  0  0  0
   -2.1936  -12.8849    0.0000 C   0  0  0  0  0  0  0  0  0  0  0  0
   -2.5054  -11.4176    0.0000 N   0  0  0  0  0  0  0  0  0  0  0  0
    0.4775   -7.0740    0.0000 N   0  0  0  0  0  0  0  0  0  0  0  0
    1.8478   -6.4639    0.0000 C   0  0  0  0  0  0  0  0  0  0  0  0
    3.0613   -7.3456    0.0000 O   0  0  0  0  0  0  0  0  0  0  0  0
    2.0046   -4.9721    0.0000 C   0  0  0  0  0  0  0  0  0  0  0  0
    0.8899   -3.9684    0.0000 N   0  0  0  0  0  0  0  0  0  0  0  0
    1.5000   -2.5981    0.0000 C   0  0  0  0  0  0  0  0  0  0  0  0
    0.7500   -1.2990    0.0000 C   0  0  0  0  0  0  0  0  0  0  0  0
    1.5000    0.0000    0.0000 C   0  0  0  0  0  0  0  0  0  0  0  0
    0.7500    1.2990    0.0000 C   0  0  0  0  0  0  0  0  0  0  0  0
   -0.7500    1.2990    0.0000 C   0  0  0  0  0  0  0  0  0  0  0  0
   -1.5000    0.0000    0.0000 C   0  0  0  0  0  0  0  0  0  0  0  0
   -0.7500   -1.2990    0.0000 C   0  0  0  0  0  0  0  0  0  0  0  0
   -1.5000   -2.5981    0.0000 O   0  0  0  0  0  0  0  0  0  0  0  0
    2.9918   -2.7549    0.0000 S   0  0  0  0  0  0  0  0  0  0  0  0
    3.3037   -4.2221    0.0000 C   0  0  0  0  0  0  0  0  0  0  0  0
    4.6740   -4.8322    0.0000 C   0  0  0  0  0  0  0  0  0  0  0  0
  1  2  1  0
  2  3  1  0
  3  4  2  0
  3  5  1  0
  5  6  1  6
  6  7  1  0
  7  8  2  0
  8  9  1  0
  9 10  2  0
 10 11  1  0
  5 12  1  0
 12 13  1  0
 13 14  2  0
 15 13  1  1
 15 16  1  0
 16 17  2  0
 17 18  1  0
 18 19  2  0
 19 20  1  0
 20 21  2  0
 21 22  1  0
 22 23  2  0
 23 24  1  0
 17 25  1  0
 25 26  1  0
 26 27  1  6
 11  7  1  0
 26 15  1  0
 23 18  1  0
M  END
>  <assay_chembl_id>  (607) 
CHEMBL4192989

>  <assay_description>  (607) 
Displacement of [3H]-LSD from human 5-HT2B receptor expressed in HEK cells after 90 mins by microbeta scintillation counting analysis

>  <parent_molecule_chembl_id>  (607) 
CHEMBL4216860

>  <canonical_smiles>  (607) 
COC(=O)[C@H](Cc1cnc[nH]1)NC(=O)[C@H]1N=C(c2ccccc2O)S[C@@H]1C

>  <standard_type>  (607) 
Ki

>  <standard_relation>  (607) 
=

>  <standard_value>  (607) 
1000.0

>  <standard_units>  (607) 
nM

>  <target_pref_name>  (607) 
Serotonin 2b (5-HT2b) receptor

>  <target_chembl_id>  (607) 
CHEMBL1833

>  <target_organism>  (607) 
Homo sapiens

>  <pchembl_median>  (607) 
6.5

$$$$
CHEMBL4207529
     RDKit          2D

 27 29  0  0  0  0  0  0  0  0999 V2000
    2.5910  -11.8209    0.0000 C   0  0  0  0  0  0  0  0  0  0  0  0
    1.3774  -10.9392    0.0000 O   0  0  0  0  0  0  0  0  0  0  0  0
    1.5342   -9.4474    0.0000 C   0  0  0  0  0  0  0  0  0  0  0  0
    2.9046   -8.8373    0.0000 O   0  0  0  0  0  0  0  0  0  0  0  0
    0.3207   -8.5658    0.0000 C   0  0  0  0  0  0  0  0  0  0  0  0
   -1.0496   -9.1759    0.0000 C   0  0  0  0  0  0  0  0  0  0  0  0
   -1.2064  -10.6676    0.0000 C   0  0  0  0  0  0  0  0  0  0  0  0
   -0.0917  -11.6713    0.0000 C   0  0  0  0  0  0  0  0  0  0  0  0
   -0.7018  -13.0417    0.0000 N   0  0  0  0  0  0  0  0  0  0  0  0
   -2.1936  -12.8849    0.0000 C   0  0  0  0  0  0  0  0  0  0  0  0
   -2.5054  -11.4176    0.0000 N   0  0  0  0  0  0  0  0  0  0  0  0
    0.4775   -7.0740    0.0000 N   0  0  0  0  0  0  0  0  0  0  0  0
    1.8478   -6.4639    0.0000 C   0  0  0  0  0  0  0  0  0  0  0  0
    3.0613   -7.3456    0.0000 O   0  0  0  0  0  0  0  0  0  0  0  0
    2.0046   -4.9721    0.0000 C   0  0  0  0  0  0  0  0  0  0  0  0
    0.8899   -3.9684    0.0000 N   0  0  0  0  0  0  0  0  0  0  0  0
    1.5000   -2.5981    0.0000 C   0  0  0  0  0  0  0  0  0  0  0  0
    0.7500   -1.2990    0.0000 C   0  0  0  0  0  0  0  0  0  0  0  0
    1.5000    0.0000    0.0000 C   0  0  0  0  0  0  0  0  0  0  0  0
    0.7500    1.2990    0.0000 C   0  0  0  0  0  0  0  0  0  0  0  0
   -0.7500    1.2990    0.0000 C   0  0  0  0  0  0  0  0  0  0  0  0
   -1.5000    0.0000    0.0000 C   0  0  0  0  0  0  0  0  0  0  0  0
   -0.7500   -1.2990    0.0000 C   0  0  0  0  0  0  0  0  0  0  0  0
   -1.5000   -2.5981    0.0000 O   0  0  0  0  0  0  0  0  0  0  0  0
    2.9918   -2.7549    0.0000 S   0  0  0  0  0  0  0  0  0  0  0  0
    3.3037   -4.2221    0.0000 C   0  0  0  0  0  0  0  0  0  0  0  0
    4.6740   -4.8322    0.0000 C   0  0  0  0  0  0  0  0  0  0  0  0
  1  2  1  0
  2  3  1  0
  3  4  2  0
  3  5  1  0
  5  6  1  6
  6  7  1  0
  7  8  2  0
  8  9  1  0
  9 10  2  0
 10 11  1  0
  5 12  1  0
 12 13  1  0
 13 14  2  0
 15 13  1  6
 15 16  1  0
 16 17  2  0
 17 18  1  0
 18 19  2  0
 19 20  1  0
 20 21  2  0
 21 22  1  0
 22 23  2  0
 23 24  1  0
 17 25  1  0
 25 26  1  0
 26 27  1  6
 11  7  1  0
 26 15  1  0
 23 18  1  0
M  END
>  <assay_chembl_id>  (608) 
CHEMBL4192989

>  <assay_description>  (608) 
Displacement of [3H]-LSD from human 5-HT2B receptor expressed in HEK cells after 90 mins by microbeta scintillation counting analysis

>  <parent_molecule_chembl_id>  (608) 
CHEMBL4207529

>  <canonical_smiles>  (608) 
COC(=O)[C@H](Cc1cnc[nH]1)NC(=O)[C@@H]1N=C(c2ccccc2O)S[C@@H]1C

>  <standard_type>  (608) 
Ki

>  <standard_relation>  (608) 
=

>  <standard_value>  (608) 
1400.0

>  <standard_units>  (608) 
nM

>  <target_pref_name>  (608) 
Serotonin 2b (5-HT2b) receptor

>  <target_chembl_id>  (608) 
CHEMBL1833

>  <target_organism>  (608) 
Homo sapiens

>  <pchembl_median>  (608) 
5.695

$$$$
CHEMBL4212435
     RDKit          2D

 19 21  0  0  0  0  0  0  0  0999 V2000
    4.6740   -4.8322    0.0000 C   0  0  0  0  0  0  0  0  0  0  0  0
    3.3037   -4.2221    0.0000 C   0  0  0  0  0  0  0  0  0  0  0  0
    2.9918   -2.7549    0.0000 S   0  0  0  0  0  0  0  0  0  0  0  0
    1.5000   -2.5981    0.0000 C   0  0  0  0  0  0  0  0  0  0  0  0
    0.7500   -1.2990    0.0000 C   0  0  0  0  0  0  0  0  0  0  0  0
    1.5000    0.0000    0.0000 C   0  0  0  0  0  0  0  0  0  0  0  0
    0.7500    1.2990    0.0000 C   0  0  0  0  0  0  0  0  0  0  0  0
   -0.7500    1.2990    0.0000 C   0  0  0  0  0  0  0  0  0  0  0  0
   -1.5000    0.0000    0.0000 C   0  0  0  0  0  0  0  0  0  0  0  0
   -0.7500   -1.2990    0.0000 C   0  0  0  0  0  0  0  0  0  0  0  0
   -1.5000   -2.5981    0.0000 O   0  0  0  0  0  0  0  0  0  0  0  0
    0.8899   -3.9684    0.0000 N   0  0  0  0  0  0  0  0  0  0  0  0
    2.0046   -4.9721    0.0000 C   0  0  0  0  0  0  0  0  0  0  0  0
    1.8478   -6.4639    0.0000 C   0  0  0  0  0  0  0  0  0  0  0  0
    0.4775   -7.0740    0.0000 C   0  0  0  0  0  0  0  0  0  0  0  0
    0.1656   -8.5412    0.0000 C   0  0  0  0  0  0  0  0  0  0  0  0
   -1.3261   -8.6980    0.0000 N   0  0  0  0  0  0  0  0  0  0  0  0
   -1.9363   -7.3277    0.0000 C   0  0  0  0  0  0  0  0  0  0  0  0
   -0.8215   -6.3240    0.0000 N   0  0  0  0  0  0  0  0  0  0  0  0
  2  1  1  1
  2  3  1  0
  3  4  1  0
  4  5  1  0
  5  6  2  0
  6  7  1  0
  7  8  2  0
  8  9  1  0
  9 10  2  0
 10 11  1  0
  4 12  2  0
 12 13  1  0
 13 14  1  6
 14 15  1  0
 15 16  2  0
 16 17  1  0
 17 18  1  0
 18 19  2  0
 13  2  1  0
 19 15  1  0
 10  5  1  0
M  END
>  <assay_chembl_id>  (609) 
CHEMBL4192989

>  <assay_description>  (609) 
Displacement of [3H]-LSD from human 5-HT2B receptor expressed in HEK cells after 90 mins by microbeta scintillation counting analysis

>  <parent_molecule_chembl_id>  (609) 
CHEMBL4212435

>  <canonical_smiles>  (609) 
C[C@@H]1SC(c2ccccc2O)=N[C@H]1Cc1c[nH]cn1

>  <standard_type>  (609) 
Ki

>  <standard_relation>  (609) 
=

>  <standard_value>  (609) 
47.0

>  <standard_units>  (609) 
nM

>  <target_pref_name>  (609) 
Serotonin 2b (5-HT2b) receptor

>  <target_chembl_id>  (609) 
CHEMBL1833

>  <target_organism>  (609) 
Homo sapiens

>  <pchembl_median>  (609) 
7.7

$$$$
CHEMBL4205064
     RDKit          2D

 18 20  0  0  0  0  0  0  0  0999 V2000
    3.0000    0.0000    0.0000 O   0  0  0  0  0  0  0  0  0  0  0  0
    1.5000    0.0000    0.0000 C   0  0  0  0  0  0  0  0  0  0  0  0
    0.7500   -1.2990    0.0000 C   0  0  0  0  0  0  0  0  0  0  0  0
   -0.7500   -1.2990    0.0000 C   0  0  0  0  0  0  0  0  0  0  0  0
   -1.5000    0.0000    0.0000 C   0  0  0  0  0  0  0  0  0  0  0  0
   -0.7500    1.2990    0.0000 C   0  0  0  0  0  0  0  0  0  0  0  0
    0.7500    1.2990    0.0000 C   0  0  0  0  0  0  0  0  0  0  0  0
    1.5000    2.5981    0.0000 C   0  0  0  0  0  0  0  0  0  0  0  0
    0.8899    3.9684    0.0000 N   0  0  0  0  0  0  0  0  0  0  0  0
    2.0046    4.9721    0.0000 C   0  0  0  0  0  0  0  0  0  0  0  0
    1.8478    6.4639    0.0000 C   0  0  0  0  0  0  0  0  0  0  0  0
    3.0613    7.3456    0.0000 C   0  0  0  0  0  0  0  0  0  0  0  0
    3.0613    8.8456    0.0000 C   0  0  0  0  0  0  0  0  0  0  0  0
    4.4879    9.3091    0.0000 N   0  0  0  0  0  0  0  0  0  0  0  0
    5.3696    8.0956    0.0000 C   0  0  0  0  0  0  0  0  0  0  0  0
    4.4879    6.8820    0.0000 N   0  0  0  0  0  0  0  0  0  0  0  0
    3.3037    4.2221    0.0000 C   0  0  0  0  0  0  0  0  0  0  0  0
    2.9918    2.7549    0.0000 S   0  0  0  0  0  0  0  0  0  0  0  0
  1  2  1  0
  2  3  2  0
  3  4  1  0
  4  5  2  0
  5  6  1  0
  6  7  2  0
  7  8  1  0
  8  9  2  0
  9 10  1  0
 10 11  1  0
 11 12  1  0
 12 13  2  0
 13 14  1  0
 14 15  1  0
 15 16  2  0
 10 17  1  0
 17 18  1  0
  7  2  1  0
 18  8  1  0
 16 12  1  0
M  END
>  <assay_chembl_id>  (610) 
CHEMBL4192989

>  <assay_description>  (610) 
Displacement of [3H]-LSD from human 5-HT2B receptor expressed in HEK cells after 90 mins by microbeta scintillation counting analysis

>  <parent_molecule_chembl_id>  (610) 
CHEMBL4205064

>  <canonical_smiles>  (610) 
Oc1ccccc1C1=NC(Cc2c[nH]cn2)CS1

>  <standard_type>  (610) 
Ki

>  <standard_relation>  (610) 
=

>  <standard_value>  (610) 
100.0

>  <standard_units>  (610) 
nM

>  <target_pref_name>  (610) 
Serotonin 2b (5-HT2b) receptor

>  <target_chembl_id>  (610) 
CHEMBL1833

>  <target_organism>  (610) 
Homo sapiens

>  <pchembl_median>  (610) 
6.64

$$$$
CHEMBL4209942
     RDKit          2D

 24 27  0  0  0  0  0  0  0  0999 V2000
    3.0000    0.0000    0.0000 O   0  0  0  0  0  0  0  0  0  0  0  0
    1.5000    0.0000    0.0000 C   0  0  0  0  0  0  0  0  0  0  0  0
    0.7500   -1.2990    0.0000 C   0  0  0  0  0  0  0  0  0  0  0  0
   -0.7500   -1.2990    0.0000 C   0  0  0  0  0  0  0  0  0  0  0  0
   -1.5000    0.0000    0.0000 C   0  0  0  0  0  0  0  0  0  0  0  0
   -0.7500    1.2990    0.0000 C   0  0  0  0  0  0  0  0  0  0  0  0
    0.7500    1.2990    0.0000 C   0  0  0  0  0  0  0  0  0  0  0  0
    1.5000    2.5981    0.0000 C   0  0  0  0  0  0  0  0  0  0  0  0
    0.8899    3.9684    0.0000 N   0  0  0  0  0  0  0  0  0  0  0  0
    2.0046    4.9721    0.0000 C   0  0  0  0  0  0  0  0  0  0  0  0
    1.8478    6.4639    0.0000 C   0  0  0  0  0  0  0  0  0  0  0  0
    0.4775    7.0740    0.0000 C   0  0  0  0  0  0  0  0  0  0  0  0
    0.1656    8.5412    0.0000 C   0  0  0  0  0  0  0  0  0  0  0  0
   -1.3261    8.6980    0.0000 N   0  0  0  0  0  0  0  0  0  0  0  0
   -1.9363    7.3277    0.0000 C   0  0  0  0  0  0  0  0  0  0  0  0
   -0.8215    6.3240    0.0000 N   0  0  0  0  0  0  0  0  0  0  0  0
    3.3037    4.2221    0.0000 C   0  0  0  0  0  0  0  0  0  0  0  0
    4.6740    4.8322    0.0000 C   0  0  0  0  0  0  0  0  0  0  0  0
    5.8875    3.9505    0.0000 C   0  0  0  0  0  0  0  0  0  0  0  0
    7.2578    4.5606    0.0000 C   0  0  0  0  0  0  0  0  0  0  0  0
    7.4146    6.0524    0.0000 C   0  0  0  0  0  0  0  0  0  0  0  0
    6.2011    6.9341    0.0000 C   0  0  0  0  0  0  0  0  0  0  0  0
    4.8308    6.3240    0.0000 C   0  0  0  0  0  0  0  0  0  0  0  0
    2.9918    2.7549    0.0000 S   0  0  0  0  0  0  0  0  0  0  0  0
  1  2  1  0
  2  3  2  0
  3  4  1  0
  4  5  2  0
  5  6  1  0
  6  7  2  0
  7  8  1  0
  8  9  2  0
  9 10  1  0
 10 11  1  0
 11 12  1  0
 12 13  2  0
 13 14  1  0
 14 15  1  0
 15 16  2  0
 10 17  1  0
 17 18  1  0
 18 19  2  0
 19 20  1  0
 20 21  2  0
 21 22  1  0
 22 23  2  0
 17 24  1  0
  7  2  1  0
 24  8  1  0
 16 12  1  0
 23 18  1  0
M  END
>  <assay_chembl_id>  (611) 
CHEMBL4192989

>  <assay_description>  (611) 
Displacement of [3H]-LSD from human 5-HT2B receptor expressed in HEK cells after 90 mins by microbeta scintillation counting analysis

>  <parent_molecule_chembl_id>  (611) 
CHEMBL4209942

>  <canonical_smiles>  (611) 
Oc1ccccc1C1=NC(Cc2c[nH]cn2)C(c2ccccc2)S1

>  <standard_type>  (611) 
Ki

>  <standard_relation>  (611) 
=

>  <standard_value>  (611) 
100.0

>  <standard_units>  (611) 
nM

>  <target_pref_name>  (611) 
Serotonin 2b (5-HT2b) receptor

>  <target_chembl_id>  (611) 
CHEMBL1833

>  <target_organism>  (611) 
Homo sapiens

>  <pchembl_median>  (611) 
7.05

$$$$
CHEMBL4206418
     RDKit          2D

 14 15  0  0  0  0  0  0  0  0999 V2000
    4.6740   -4.8322    0.0000 C   0  0  0  0  0  0  0  0  0  0  0  0
    3.3037   -4.2221    0.0000 C   0  0  0  0  0  0  0  0  0  0  0  0
    2.9918   -2.7549    0.0000 S   0  0  0  0  0  0  0  0  0  0  0  0
    1.5000   -2.5981    0.0000 C   0  0  0  0  0  0  0  0  0  0  0  0
    0.7500   -1.2990    0.0000 C   0  0  0  0  0  0  0  0  0  0  0  0
    1.5000    0.0000    0.0000 C   0  0  0  0  0  0  0  0  0  0  0  0
    0.7500    1.2990    0.0000 C   0  0  0  0  0  0  0  0  0  0  0  0
   -0.7500    1.2990    0.0000 C   0  0  0  0  0  0  0  0  0  0  0  0
   -1.5000    0.0000    0.0000 C   0  0  0  0  0  0  0  0  0  0  0  0
   -0.7500   -1.2990    0.0000 C   0  0  0  0  0  0  0  0  0  0  0  0
    0.8899   -3.9684    0.0000 N   0  0  0  0  0  0  0  0  0  0  0  0
    2.0046   -4.9721    0.0000 C   0  0  0  0  0  0  0  0  0  0  0  0
    1.8478   -6.4639    0.0000 C   0  0  0  0  0  0  0  0  0  0  0  0
    0.4775   -7.0740    0.0000 O   0  0  0  0  0  0  0  0  0  0  0  0
  2  1  1  1
  2  3  1  0
  3  4  1  0
  4  5  1  0
  5  6  2  0
  6  7  1  0
  7  8  2  0
  8  9  1  0
  9 10  2  0
  4 11  2  0
 11 12  1  0
 12 13  1  6
 13 14  1  0
 12  2  1  0
 10  5  1  0
M  END
>  <assay_chembl_id>  (612) 
CHEMBL4192989

>  <assay_description>  (612) 
Displacement of [3H]-LSD from human 5-HT2B receptor expressed in HEK cells after 90 mins by microbeta scintillation counting analysis

>  <parent_molecule_chembl_id>  (612) 
CHEMBL4206418

>  <canonical_smiles>  (612) 
C[C@@H]1SC(c2ccccc2)=N[C@H]1CO

>  <standard_type>  (612) 
Ki

>  <standard_relation>  (612) 
=

>  <standard_value>  (612) 
3000.0

>  <standard_units>  (612) 
nM

>  <target_pref_name>  (612) 
Serotonin 2b (5-HT2b) receptor

>  <target_chembl_id>  (612) 
CHEMBL1833

>  <target_organism>  (612) 
Homo sapiens

>  <pchembl_median>  (612) 
6.11

$$$$
CHEMBL4215741
     RDKit          2D

 16 17  0  0  0  0  0  0  0  0999 V2000
    3.7500   -1.2990    0.0000 C   0  0  0  0  0  0  0  0  0  0  0  0
    3.0000    0.0000    0.0000 N   0  0  0  0  0  0  0  0  0  0  0  0
    1.5000    0.0000    0.0000 C   0  0  0  0  0  0  0  0  0  0  0  0
    0.7500   -1.2990    0.0000 C   0  0  0  0  0  0  0  0  0  0  0  0
   -0.7500   -1.2990    0.0000 C   0  0  0  0  0  0  0  0  0  0  0  0
   -1.5000    0.0000    0.0000 C   0  0  0  0  0  0  0  0  0  0  0  0
   -0.7500    1.2990    0.0000 C   0  0  0  0  0  0  0  0  0  0  0  0
    0.7500    1.2990    0.0000 C   0  0  0  0  0  0  0  0  0  0  0  0
    1.5000    2.5981    0.0000 C   0  0  0  0  0  0  0  0  0  0  0  0
    0.8899    3.9684    0.0000 N   0  0  0  0  0  0  0  0  0  0  0  0
    2.0046    4.9721    0.0000 C   0  0  0  0  0  0  0  0  0  0  0  0
    1.8478    6.4639    0.0000 C   0  0  0  0  0  0  0  0  0  0  0  0
    3.0613    7.3456    0.0000 O   0  0  0  0  0  0  0  0  0  0  0  0
    3.3037    4.2221    0.0000 C   0  0  0  0  0  0  0  0  0  0  0  0
    4.6740    4.8322    0.0000 C   0  0  0  0  0  0  0  0  0  0  0  0
    2.9918    2.7549    0.0000 S   0  0  0  0  0  0  0  0  0  0  0  0
  1  2  1  0
  2  3  1  0
  3  4  2  0
  4  5  1  0
  5  6  2  0
  6  7  1  0
  7  8  2  0
  8  9  1  0
  9 10  2  0
 10 11  1  0
 11 12  1  1
 12 13  1  0
 11 14  1  0
 14 15  1  6
 14 16  1  0
  8  3  1  0
 16  9  1  0
M  END
>  <assay_chembl_id>  (613) 
CHEMBL4192989

>  <assay_description>  (613) 
Displacement of [3H]-LSD from human 5-HT2B receptor expressed in HEK cells after 90 mins by microbeta scintillation counting analysis

>  <parent_molecule_chembl_id>  (613) 
CHEMBL4215741

>  <canonical_smiles>  (613) 
CNc1ccccc1C1=N[C@@H](CO)[C@H](C)S1

>  <standard_type>  (613) 
Ki

>  <standard_relation>  (613) 
=

>  <standard_value>  (613) 
1200.0

>  <standard_units>  (613) 
nM

>  <target_pref_name>  (613) 
Serotonin 2b (5-HT2b) receptor

>  <target_chembl_id>  (613) 
CHEMBL1833

>  <target_organism>  (613) 
Homo sapiens

>  <pchembl_median>  (613) 
5.82

$$$$
CHEMBL4210787
     RDKit          2D

 19 21  0  0  0  0  0  0  0  0999 V2000
    4.6740   -7.4303    0.0000 C   0  0  0  0  0  0  0  0  0  0  0  0
    3.3037   -6.8202    0.0000 C   0  0  0  0  0  0  0  0  0  0  0  0
    2.9918   -5.3529    0.0000 S   0  0  0  0  0  0  0  0  0  0  0  0
    1.5000   -5.1962    0.0000 C   0  0  0  0  0  0  0  0  0  0  0  0
    0.7500   -3.8971    0.0000 C   0  0  0  0  0  0  0  0  0  0  0  0
    1.5000   -2.5981    0.0000 C   0  0  0  0  0  0  0  0  0  0  0  0
    0.7500   -1.2990    0.0000 C   0  0  0  0  0  0  0  0  0  0  0  0
    1.5000    0.0000    0.0000 C   0  0  0  0  0  0  0  0  0  0  0  0
    0.7500    1.2990    0.0000 C   0  0  0  0  0  0  0  0  0  0  0  0
   -0.7500    1.2990    0.0000 C   0  0  0  0  0  0  0  0  0  0  0  0
   -1.5000    0.0000    0.0000 C   0  0  0  0  0  0  0  0  0  0  0  0
   -0.7500   -1.2990    0.0000 C   0  0  0  0  0  0  0  0  0  0  0  0
   -1.5000   -2.5981    0.0000 C   0  0  0  0  0  0  0  0  0  0  0  0
   -0.7500   -3.8971    0.0000 C   0  0  0  0  0  0  0  0  0  0  0  0
   -1.5000   -5.1962    0.0000 O   0  0  0  0  0  0  0  0  0  0  0  0
    0.8899   -6.5665    0.0000 N   0  0  0  0  0  0  0  0  0  0  0  0
    2.0046   -7.5702    0.0000 C   0  0  0  0  0  0  0  0  0  0  0  0
    1.8478   -9.0619    0.0000 C   0  0  0  0  0  0  0  0  0  0  0  0
    0.4775   -9.6721    0.0000 O   0  0  0  0  0  0  0  0  0  0  0  0
  2  1  1  1
  2  3  1  0
  3  4  1  0
  4  5  1  0
  5  6  2  0
  6  7  1  0
  7  8  2  0
  8  9  1  0
  9 10  2  0
 10 11  1  0
 11 12  2  0
 12 13  1  0
 13 14  2  0
 14 15  1  0
  4 16  2  0
 16 17  1  0
 17 18  1  6
 18 19  1  0
 17  2  1  0
 14  5  1  0
 12  7  1  0
M  END
>  <assay_chembl_id>  (614) 
CHEMBL4192989

>  <assay_description>  (614) 
Displacement of [3H]-LSD from human 5-HT2B receptor expressed in HEK cells after 90 mins by microbeta scintillation counting analysis

>  <parent_molecule_chembl_id>  (614) 
CHEMBL4210787

>  <canonical_smiles>  (614) 
C[C@@H]1SC(c2cc3ccccc3cc2O)=N[C@H]1CO

>  <standard_type>  (614) 
Ki

>  <standard_relation>  (614) 
=

>  <standard_value>  (614) 
810.0

>  <standard_units>  (614) 
nM

>  <target_pref_name>  (614) 
Serotonin 2b (5-HT2b) receptor

>  <target_chembl_id>  (614) 
CHEMBL1833

>  <target_organism>  (614) 
Homo sapiens

>  <pchembl_median>  (614) 
6.75

$$$$
CHEMBL4202582
     RDKit          2D

 17 19  0  0  0  0  0  0  0  0999 V2000
   -5.4853   -5.8293    0.0000 C   0  0  0  0  0  0  0  0  0  0  0  0
   -4.6036   -4.6157    0.0000 C   0  0  0  0  0  0  0  0  0  0  0  0
   -3.1036   -4.6157    0.0000 S   0  0  0  0  0  0  0  0  0  0  0  0
   -2.6401   -3.1891    0.0000 C   0  0  0  0  0  0  0  0  0  0  0  0
   -1.2135   -2.7256    0.0000 C   0  0  0  0  0  0  0  0  0  0  0  0
    0.0000   -3.6073    0.0000 C   0  0  0  0  0  0  0  0  0  0  0  0
    1.2135   -2.7256    0.0000 N   0  0  0  0  0  0  0  0  0  0  0  0
    0.7500   -1.2990    0.0000 C   0  0  0  0  0  0  0  0  0  0  0  0
    1.5000    0.0000    0.0000 C   0  0  0  0  0  0  0  0  0  0  0  0
    0.7500    1.2990    0.0000 C   0  0  0  0  0  0  0  0  0  0  0  0
   -0.7500    1.2990    0.0000 C   0  0  0  0  0  0  0  0  0  0  0  0
   -1.5000    0.0000    0.0000 C   0  0  0  0  0  0  0  0  0  0  0  0
   -0.7500   -1.2990    0.0000 C   0  0  0  0  0  0  0  0  0  0  0  0
   -3.8536   -2.3075    0.0000 N   0  0  0  0  0  0  0  0  0  0  0  0
   -5.0672   -3.1891    0.0000 C   0  0  0  0  0  0  0  0  0  0  0  0
   -6.4937   -2.7256    0.0000 C   0  0  0  0  0  0  0  0  0  0  0  0
   -6.8056   -1.2584    0.0000 O   0  0  0  0  0  0  0  0  0  0  0  0
  2  1  1  1
  2  3  1  0
  3  4  1  0
  4  5  1  0
  5  6  2  0
  6  7  1  0
  7  8  1  0
  8  9  2  0
  9 10  1  0
 10 11  2  0
 11 12  1  0
 12 13  2  0
  4 14  2  0
 14 15  1  0
 15 16  1  6
 16 17  1  0
 15  2  1  0
 13  5  1  0
 13  8  1  0
M  END
>  <assay_chembl_id>  (615) 
CHEMBL4192989

>  <assay_description>  (615) 
Displacement of [3H]-LSD from human 5-HT2B receptor expressed in HEK cells after 90 mins by microbeta scintillation counting analysis

>  <parent_molecule_chembl_id>  (615) 
CHEMBL4202582

>  <canonical_smiles>  (615) 
C[C@@H]1SC(c2c[nH]c3ccccc23)=N[C@H]1CO

>  <standard_type>  (615) 
Ki

>  <standard_relation>  (615) 
=

>  <standard_value>  (615) 
2400.0

>  <standard_units>  (615) 
nM

>  <target_pref_name>  (615) 
Serotonin 2b (5-HT2b) receptor

>  <target_chembl_id>  (615) 
CHEMBL1833

>  <target_organism>  (615) 
Homo sapiens

>  <pchembl_median>  (615) 
6.9

$$$$
CHEMBL4206939
     RDKit          2D

 13 14  0  0  0  0  0  0  0  0999 V2000
    2.7760    0.0000    0.0000 C   0  0  0  0  0  0  0  0  0  0  0  0
    1.2760    0.0000    0.0000 C   0  0  0  0  0  0  0  0  0  0  0  0
    0.3943    1.2135    0.0000 S   0  0  0  0  0  0  0  0  0  0  0  0
   -1.0323    0.7500    0.0000 C   0  0  0  0  0  0  0  0  0  0  0  0
   -2.2458    1.6317    0.0000 C   0  0  0  0  0  0  0  0  0  0  0  0
   -3.6724    1.1682    0.0000 C   0  0  0  0  0  0  0  0  0  0  0  0
   -4.5541    2.3817    0.0000 C   0  0  0  0  0  0  0  0  0  0  0  0
   -3.6724    3.5952    0.0000 C   0  0  0  0  0  0  0  0  0  0  0  0
   -2.2458    3.1317    0.0000 S   0  0  0  0  0  0  0  0  0  0  0  0
   -1.0323   -0.7500    0.0000 N   0  0  0  0  0  0  0  0  0  0  0  0
    0.3943   -1.2135    0.0000 C   0  0  0  0  0  0  0  0  0  0  0  0
    0.8578   -2.6401    0.0000 C   0  0  0  0  0  0  0  0  0  0  0  0
   -0.1459   -3.7548    0.0000 O   0  0  0  0  0  0  0  0  0  0  0  0
  2  1  1  1
  2  3  1  0
  3  4  1  0
  4  5  1  0
  5  6  2  0
  6  7  1  0
  7  8  2  0
  8  9  1  0
  4 10  2  0
 10 11  1  0
 11 12  1  6
 12 13  1  0
 11  2  1  0
  9  5  1  0
M  END
>  <assay_chembl_id>  (616) 
CHEMBL4192989

>  <assay_description>  (616) 
Displacement of [3H]-LSD from human 5-HT2B receptor expressed in HEK cells after 90 mins by microbeta scintillation counting analysis

>  <parent_molecule_chembl_id>  (616) 
CHEMBL4206939

>  <canonical_smiles>  (616) 
C[C@@H]1SC(c2cccs2)=N[C@H]1CO

>  <standard_type>  (616) 
Ki

>  <standard_relation>  (616) 
=

>  <standard_value>  (616) 
1400.0

>  <standard_units>  (616) 
nM

>  <target_pref_name>  (616) 
Serotonin 2b (5-HT2b) receptor

>  <target_chembl_id>  (616) 
CHEMBL1833

>  <target_organism>  (616) 
Homo sapiens

>  <pchembl_median>  (616) 
5.69

$$$$
CHEMBL4218679
     RDKit          2D

 13 14  0  0  0  0  0  0  0  0999 V2000
    2.7760    0.0000    0.0000 C   0  0  0  0  0  0  0  0  0  0  0  0
    1.2760    0.0000    0.0000 C   0  0  0  0  0  0  0  0  0  0  0  0
    0.3943    1.2135    0.0000 S   0  0  0  0  0  0  0  0  0  0  0  0
   -1.0323    0.7500    0.0000 C   0  0  0  0  0  0  0  0  0  0  0  0
   -2.2458    1.6317    0.0000 C   0  0  0  0  0  0  0  0  0  0  0  0
   -3.6724    1.1682    0.0000 C   0  0  0  0  0  0  0  0  0  0  0  0
   -4.5541    2.3817    0.0000 C   0  0  0  0  0  0  0  0  0  0  0  0
   -3.6724    3.5952    0.0000 S   0  0  0  0  0  0  0  0  0  0  0  0
   -2.2458    3.1317    0.0000 C   0  0  0  0  0  0  0  0  0  0  0  0
   -1.0323   -0.7500    0.0000 N   0  0  0  0  0  0  0  0  0  0  0  0
    0.3943   -1.2135    0.0000 C   0  0  0  0  0  0  0  0  0  0  0  0
    0.8578   -2.6401    0.0000 C   0  0  0  0  0  0  0  0  0  0  0  0
   -0.1459   -3.7548    0.0000 O   0  0  0  0  0  0  0  0  0  0  0  0
  2  1  1  1
  2  3  1  0
  3  4  1  0
  4  5  1  0
  5  6  1  0
  6  7  2  0
  7  8  1  0
  8  9  1  0
  4 10  2  0
 10 11  1  0
 11 12  1  6
 12 13  1  0
 11  2  1  0
  9  5  2  0
M  END
>  <assay_chembl_id>  (617) 
CHEMBL4192989

>  <assay_description>  (617) 
Displacement of [3H]-LSD from human 5-HT2B receptor expressed in HEK cells after 90 mins by microbeta scintillation counting analysis

>  <parent_molecule_chembl_id>  (617) 
CHEMBL4218679

>  <canonical_smiles>  (617) 
C[C@@H]1SC(c2ccsc2)=N[C@H]1CO

>  <standard_type>  (617) 
Ki

>  <standard_relation>  (617) 
=

>  <standard_value>  (617) 
1500.0

>  <standard_units>  (617) 
nM

>  <target_pref_name>  (617) 
Serotonin 2b (5-HT2b) receptor

>  <target_chembl_id>  (617) 
CHEMBL1833

>  <target_organism>  (617) 
Homo sapiens

>  <pchembl_median>  (617) 
7.29

$$$$
CHEMBL4212246
     RDKit          2D

 19 20  0  0  0  0  0  0  0  0999 V2000
    7.5000   -2.5981    0.0000 C   0  0  0  0  0  0  0  0  0  0  0  0
    6.0000   -2.5981    0.0000 C   0  0  0  0  0  0  0  0  0  0  0  0
    5.2500   -1.2990    0.0000 C   0  0  0  0  0  0  0  0  0  0  0  0
    3.7500   -1.2990    0.0000 C   0  0  0  0  0  0  0  0  0  0  0  0
    3.0000    0.0000    0.0000 O   0  0  0  0  0  0  0  0  0  0  0  0
    1.5000    0.0000    0.0000 C   0  0  0  0  0  0  0  0  0  0  0  0
    0.7500   -1.2990    0.0000 C   0  0  0  0  0  0  0  0  0  0  0  0
   -0.7500   -1.2990    0.0000 C   0  0  0  0  0  0  0  0  0  0  0  0
   -1.5000    0.0000    0.0000 C   0  0  0  0  0  0  0  0  0  0  0  0
   -3.0000    0.0000    0.0000 C   0  0  0  0  0  0  0  0  0  0  0  0
   -3.8817   -1.2135    0.0000 N   0  0  0  0  0  0  0  0  0  0  0  0
   -5.3083   -0.7500    0.0000 C   0  0  0  0  0  0  0  0  0  0  0  0
   -6.5218   -1.6317    0.0000 C   0  0  0  0  0  0  0  0  0  0  0  0
   -7.8921   -1.0216    0.0000 O   0  0  0  0  0  0  0  0  0  0  0  0
   -5.3083    0.7500    0.0000 C   0  0  0  0  0  0  0  0  0  0  0  0
   -6.5218    1.6317    0.0000 C   0  0  0  0  0  0  0  0  0  0  0  0
   -3.8817    1.2135    0.0000 S   0  0  0  0  0  0  0  0  0  0  0  0
   -0.7500    1.2990    0.0000 C   0  0  0  0  0  0  0  0  0  0  0  0
    0.7500    1.2990    0.0000 C   0  0  0  0  0  0  0  0  0  0  0  0
  1  2  1  0
  2  3  1  0
  3  4  1  0
  4  5  1  0
  5  6  1  0
  6  7  2  0
  7  8  1  0
  8  9  2  0
  9 10  1  0
 10 11  2  0
 11 12  1  0
 12 13  1  1
 13 14  1  0
 12 15  1  0
 15 16  1  6
 15 17  1  0
  9 18  1  0
 18 19  2  0
 19  6  1  0
 17 10  1  0
M  END
>  <assay_chembl_id>  (618) 
CHEMBL4192989

>  <assay_description>  (618) 
Displacement of [3H]-LSD from human 5-HT2B receptor expressed in HEK cells after 90 mins by microbeta scintillation counting analysis

>  <parent_molecule_chembl_id>  (618) 
CHEMBL4212246

>  <canonical_smiles>  (618) 
CCCCOc1ccc(C2=N[C@@H](CO)[C@H](C)S2)cc1

>  <standard_type>  (618) 
Ki

>  <standard_relation>  (618) 
=

>  <standard_value>  (618) 
7500.0

>  <standard_units>  (618) 
nM

>  <target_pref_name>  (618) 
Serotonin 2b (5-HT2b) receptor

>  <target_chembl_id>  (618) 
CHEMBL1833

>  <target_organism>  (618) 
Homo sapiens

>  <pchembl_median>  (618) 
5.7

$$$$
CHEMBL4207355
     RDKit          2D

 21 22  0  0  0  0  0  0  0  0999 V2000
    9.7500   -3.8971    0.0000 C   0  0  0  0  0  0  0  0  0  0  0  0
    8.2500   -3.8971    0.0000 C   0  0  0  0  0  0  0  0  0  0  0  0
    7.5000   -2.5981    0.0000 C   0  0  0  0  0  0  0  0  0  0  0  0
    6.0000   -2.5981    0.0000 C   0  0  0  0  0  0  0  0  0  0  0  0
    5.2500   -1.2990    0.0000 C   0  0  0  0  0  0  0  0  0  0  0  0
    3.7500   -1.2990    0.0000 C   0  0  0  0  0  0  0  0  0  0  0  0
    3.0000    0.0000    0.0000 O   0  0  0  0  0  0  0  0  0  0  0  0
    1.5000    0.0000    0.0000 C   0  0  0  0  0  0  0  0  0  0  0  0
    0.7500   -1.2990    0.0000 C   0  0  0  0  0  0  0  0  0  0  0  0
   -0.7500   -1.2990    0.0000 C   0  0  0  0  0  0  0  0  0  0  0  0
   -1.5000    0.0000    0.0000 C   0  0  0  0  0  0  0  0  0  0  0  0
   -3.0000    0.0000    0.0000 C   0  0  0  0  0  0  0  0  0  0  0  0
   -3.8817   -1.2135    0.0000 N   0  0  0  0  0  0  0  0  0  0  0  0
   -5.3083   -0.7500    0.0000 C   0  0  0  0  0  0  0  0  0  0  0  0
   -6.5218   -1.6317    0.0000 C   0  0  0  0  0  0  0  0  0  0  0  0
   -7.8921   -1.0216    0.0000 O   0  0  0  0  0  0  0  0  0  0  0  0
   -5.3083    0.7500    0.0000 C   0  0  0  0  0  0  0  0  0  0  0  0
   -6.5218    1.6317    0.0000 C   0  0  0  0  0  0  0  0  0  0  0  0
   -3.8817    1.2135    0.0000 S   0  0  0  0  0  0  0  0  0  0  0  0
   -0.7500    1.2990    0.0000 C   0  0  0  0  0  0  0  0  0  0  0  0
    0.7500    1.2990    0.0000 C   0  0  0  0  0  0  0  0  0  0  0  0
  1  2  1  0
  2  3  1  0
  3  4  1  0
  4  5  1  0
  5  6  1  0
  6  7  1  0
  7  8  1  0
  8  9  2  0
  9 10  1  0
 10 11  2  0
 11 12  1  0
 12 13  2  0
 13 14  1  0
 14 15  1  1
 15 16  1  0
 14 17  1  0
 17 18  1  6
 17 19  1  0
 11 20  1  0
 20 21  2  0
 21  8  1  0
 19 12  1  0
M  END
>  <assay_chembl_id>  (619) 
CHEMBL4192989

>  <assay_description>  (619) 
Displacement of [3H]-LSD from human 5-HT2B receptor expressed in HEK cells after 90 mins by microbeta scintillation counting analysis

>  <parent_molecule_chembl_id>  (619) 
CHEMBL4207355

>  <canonical_smiles>  (619) 
CCCCCCOc1ccc(C2=N[C@@H](CO)[C@H](C)S2)cc1

>  <standard_type>  (619) 
Ki

>  <standard_relation>  (619) 
=

>  <standard_value>  (619) 
4300.0

>  <standard_units>  (619) 
nM

>  <target_pref_name>  (619) 
Serotonin 2b (5-HT2b) receptor

>  <target_chembl_id>  (619) 
CHEMBL1833

>  <target_organism>  (619) 
Homo sapiens

>  <pchembl_median>  (619) 
6.2

$$$$
CHEMBL4204576
     RDKit          2D

 18 20  0  0  0  0  0  0  0  0999 V2000
    4.6740   -4.8322    0.0000 C   0  0  0  0  0  0  0  0  0  0  0  0
    3.3037   -4.2221    0.0000 C   0  0  0  0  0  0  0  0  0  0  0  0
    2.9918   -2.7549    0.0000 S   0  0  0  0  0  0  0  0  0  0  0  0
    1.5000   -2.5981    0.0000 C   0  0  0  0  0  0  0  0  0  0  0  0
    0.7500   -1.2990    0.0000 C   0  0  0  0  0  0  0  0  0  0  0  0
    1.5000    0.0000    0.0000 C   0  0  0  0  0  0  0  0  0  0  0  0
    0.7500    1.2990    0.0000 C   0  0  0  0  0  0  0  0  0  0  0  0
   -0.7500    1.2990    0.0000 C   0  0  0  0  0  0  0  0  0  0  0  0
   -1.5000    0.0000    0.0000 C   0  0  0  0  0  0  0  0  0  0  0  0
   -0.7500   -1.2990    0.0000 C   0  0  0  0  0  0  0  0  0  0  0  0
    0.8899   -3.9684    0.0000 N   0  0  0  0  0  0  0  0  0  0  0  0
    2.0046   -4.9721    0.0000 C   0  0  0  0  0  0  0  0  0  0  0  0
    1.8478   -6.4639    0.0000 C   0  0  0  0  0  0  0  0  0  0  0  0
    0.4775   -7.0740    0.0000 C   0  0  0  0  0  0  0  0  0  0  0  0
    0.1656   -8.5412    0.0000 C   0  0  0  0  0  0  0  0  0  0  0  0
   -1.3261   -8.6980    0.0000 N   0  0  0  0  0  0  0  0  0  0  0  0
   -1.9363   -7.3277    0.0000 C   0  0  0  0  0  0  0  0  0  0  0  0
   -0.8215   -6.3240    0.0000 N   0  0  0  0  0  0  0  0  0  0  0  0
  2  1  1  1
  2  3  1  0
  3  4  1  0
  4  5  1  0
  5  6  2  0
  6  7  1  0
  7  8  2  0
  8  9  1  0
  9 10  2  0
  4 11  2  0
 11 12  1  0
 12 13  1  6
 13 14  1  0
 14 15  2  0
 15 16  1  0
 16 17  1  0
 17 18  2  0
 12  2  1  0
 18 14  1  0
 10  5  1  0
M  END
>  <assay_chembl_id>  (620) 
CHEMBL4192989

>  <assay_description>  (620) 
Displacement of [3H]-LSD from human 5-HT2B receptor expressed in HEK cells after 90 mins by microbeta scintillation counting analysis

>  <parent_molecule_chembl_id>  (620) 
CHEMBL4204576

>  <canonical_smiles>  (620) 
C[C@@H]1SC(c2ccccc2)=N[C@H]1Cc1c[nH]cn1

>  <standard_type>  (620) 
Ki

>  <standard_relation>  (620) 
=

>  <standard_value>  (620) 
380.0

>  <standard_units>  (620) 
nM

>  <target_pref_name>  (620) 
Serotonin 2b (5-HT2b) receptor

>  <target_chembl_id>  (620) 
CHEMBL1833

>  <target_organism>  (620) 
Homo sapiens

>  <pchembl_median>  (620) 
6.5

$$$$
CHEMBL4204036
     RDKit          2D

 18 20  0  0  0  0  0  0  0  0999 V2000
    4.6740   -4.8322    0.0000 C   0  0  0  0  0  0  0  0  0  0  0  0
    3.3037   -4.2221    0.0000 C   0  0  0  0  0  0  0  0  0  0  0  0
    2.9918   -2.7549    0.0000 S   0  0  0  0  0  0  0  0  0  0  0  0
    1.5000   -2.5981    0.0000 C   0  0  0  0  0  0  0  0  0  0  0  0
    0.7500   -1.2990    0.0000 C   0  0  0  0  0  0  0  0  0  0  0  0
    1.5000    0.0000    0.0000 C   0  0  0  0  0  0  0  0  0  0  0  0
    0.7500    1.2990    0.0000 C   0  0  0  0  0  0  0  0  0  0  0  0
   -0.7500    1.2990    0.0000 C   0  0  0  0  0  0  0  0  0  0  0  0
   -1.5000    0.0000    0.0000 C   0  0  0  0  0  0  0  0  0  0  0  0
   -0.7500   -1.2990    0.0000 C   0  0  0  0  0  0  0  0  0  0  0  0
    0.8899   -3.9684    0.0000 N   0  0  0  0  0  0  0  0  0  0  0  0
    2.0046   -4.9721    0.0000 C   0  0  0  0  0  0  0  0  0  0  0  0
    1.8478   -6.4639    0.0000 C   0  0  0  0  0  0  0  0  0  0  0  0
    0.4775   -7.0740    0.0000 C   0  0  0  0  0  0  0  0  0  0  0  0
    0.1656   -8.5412    0.0000 C   0  0  0  0  0  0  0  0  0  0  0  0
   -1.3261   -8.6980    0.0000 N   0  0  0  0  0  0  0  0  0  0  0  0
   -1.9363   -7.3277    0.0000 C   0  0  0  0  0  0  0  0  0  0  0  0
   -0.8215   -6.3240    0.0000 N   0  0  0  0  0  0  0  0  0  0  0  0
  2  1  1  1
  2  3  1  0
  3  4  1  0
  4  5  1  0
  5  6  2  0
  6  7  1  0
  7  8  2  0
  8  9  1  0
  9 10  2  0
  4 11  2  0
 11 12  1  0
 12 13  1  1
 13 14  1  0
 14 15  2  0
 15 16  1  0
 16 17  1  0
 17 18  2  0
 12  2  1  0
 18 14  1  0
 10  5  1  0
M  END
>  <assay_chembl_id>  (621) 
CHEMBL4192989

>  <assay_description>  (621) 
Displacement of [3H]-LSD from human 5-HT2B receptor expressed in HEK cells after 90 mins by microbeta scintillation counting analysis

>  <parent_molecule_chembl_id>  (621) 
CHEMBL4204036

>  <canonical_smiles>  (621) 
C[C@@H]1SC(c2ccccc2)=N[C@@H]1Cc1c[nH]cn1

>  <standard_type>  (621) 
Ki

>  <standard_relation>  (621) 
=

>  <standard_value>  (621) 
690.0

>  <standard_units>  (621) 
nM

>  <target_pref_name>  (621) 
Serotonin 2b (5-HT2b) receptor

>  <target_chembl_id>  (621) 
CHEMBL1833

>  <target_organism>  (621) 
Homo sapiens

>  <pchembl_median>  (621) 
5.09

$$$$
CHEMBL4208914
     RDKit          2D

 24 27  0  0  0  0  0  0  0  0999 V2000
    4.6740   -4.8322    0.0000 C   0  0  0  0  0  0  0  0  0  0  0  0
    3.3037   -4.2221    0.0000 C   0  0  0  0  0  0  0  0  0  0  0  0
    2.9918   -2.7549    0.0000 S   0  0  0  0  0  0  0  0  0  0  0  0
    1.5000   -2.5981    0.0000 C   0  0  0  0  0  0  0  0  0  0  0  0
    0.7500   -1.2990    0.0000 C   0  0  0  0  0  0  0  0  0  0  0  0
    1.5000    0.0000    0.0000 C   0  0  0  0  0  0  0  0  0  0  0  0
    0.7500    1.2990    0.0000 C   0  0  0  0  0  0  0  0  0  0  0  0
   -0.7500    1.2990    0.0000 C   0  0  0  0  0  0  0  0  0  0  0  0
   -1.5000    2.5981    0.0000 C   0  0  0  0  0  0  0  0  0  0  0  0
   -0.7500    3.8971    0.0000 C   0  0  0  0  0  0  0  0  0  0  0  0
   -1.5000    5.1962    0.0000 C   0  0  0  0  0  0  0  0  0  0  0  0
   -3.0000    5.1962    0.0000 C   0  0  0  0  0  0  0  0  0  0  0  0
   -3.7500    3.8971    0.0000 C   0  0  0  0  0  0  0  0  0  0  0  0
   -3.0000    2.5981    0.0000 C   0  0  0  0  0  0  0  0  0  0  0  0
   -1.5000    0.0000    0.0000 C   0  0  0  0  0  0  0  0  0  0  0  0
   -0.7500   -1.2990    0.0000 C   0  0  0  0  0  0  0  0  0  0  0  0
    0.8899   -3.9684    0.0000 N   0  0  0  0  0  0  0  0  0  0  0  0
    2.0046   -4.9721    0.0000 C   0  0  0  0  0  0  0  0  0  0  0  0
    1.8478   -6.4639    0.0000 C   0  0  0  0  0  0  0  0  0  0  0  0
    0.4775   -7.0740    0.0000 C   0  0  0  0  0  0  0  0  0  0  0  0
    0.1656   -8.5412    0.0000 C   0  0  0  0  0  0  0  0  0  0  0  0
   -1.3261   -8.6980    0.0000 N   0  0  0  0  0  0  0  0  0  0  0  0
   -1.9363   -7.3277    0.0000 C   0  0  0  0  0  0  0  0  0  0  0  0
   -0.8215   -6.3240    0.0000 N   0  0  0  0  0  0  0  0  0  0  0  0
  2  1  1  1
  2  3  1  0
  3  4  1  0
  4  5  1  0
  5  6  2  0
  6  7  1  0
  7  8  2  0
  8  9  1  0
  9 10  2  0
 10 11  1  0
 11 12  2  0
 12 13  1  0
 13 14  2  0
  8 15  1  0
 15 16  2  0
  4 17  2  0
 17 18  1  0
 18 19  1  6
 19 20  1  0
 20 21  2  0
 21 22  1  0
 22 23  1  0
 23 24  2  0
 18  2  1  0
 24 20  1  0
 16  5  1  0
 14  9  1  0
M  END
>  <assay_chembl_id>  (622) 
CHEMBL4192989

>  <assay_description>  (622) 
Displacement of [3H]-LSD from human 5-HT2B receptor expressed in HEK cells after 90 mins by microbeta scintillation counting analysis

>  <parent_molecule_chembl_id>  (622) 
CHEMBL4208914

>  <canonical_smiles>  (622) 
C[C@@H]1SC(c2ccc(-c3ccccc3)cc2)=N[C@H]1Cc1c[nH]cn1

>  <standard_type>  (622) 
Ki

>  <standard_relation>  (622) 
=

>  <standard_value>  (622) 
1100.0

>  <standard_units>  (622) 
nM

>  <target_pref_name>  (622) 
Serotonin 2b (5-HT2b) receptor

>  <target_chembl_id>  (622) 
CHEMBL1833

>  <target_organism>  (622) 
Homo sapiens

>  <pchembl_median>  (622) 
6.08

$$$$
CHEMBL4208376
     RDKit          2D

 24 27  0  0  0  0  0  0  0  0999 V2000
    4.6740   -4.8322    0.0000 C   0  0  0  0  0  0  0  0  0  0  0  0
    3.3037   -4.2221    0.0000 C   0  0  0  0  0  0  0  0  0  0  0  0
    2.9918   -2.7549    0.0000 S   0  0  0  0  0  0  0  0  0  0  0  0
    1.5000   -2.5981    0.0000 C   0  0  0  0  0  0  0  0  0  0  0  0
    0.7500   -1.2990    0.0000 C   0  0  0  0  0  0  0  0  0  0  0  0
    1.5000    0.0000    0.0000 C   0  0  0  0  0  0  0  0  0  0  0  0
    0.7500    1.2990    0.0000 C   0  0  0  0  0  0  0  0  0  0  0  0
   -0.7500    1.2990    0.0000 C   0  0  0  0  0  0  0  0  0  0  0  0
   -1.5000    2.5981    0.0000 C   0  0  0  0  0  0  0  0  0  0  0  0
   -0.7500    3.8971    0.0000 C   0  0  0  0  0  0  0  0  0  0  0  0
   -1.5000    5.1962    0.0000 C   0  0  0  0  0  0  0  0  0  0  0  0
   -3.0000    5.1962    0.0000 C   0  0  0  0  0  0  0  0  0  0  0  0
   -3.7500    3.8971    0.0000 C   0  0  0  0  0  0  0  0  0  0  0  0
   -3.0000    2.5981    0.0000 C   0  0  0  0  0  0  0  0  0  0  0  0
   -1.5000    0.0000    0.0000 C   0  0  0  0  0  0  0  0  0  0  0  0
   -0.7500   -1.2990    0.0000 C   0  0  0  0  0  0  0  0  0  0  0  0
    0.8899   -3.9684    0.0000 N   0  0  0  0  0  0  0  0  0  0  0  0
    2.0046   -4.9721    0.0000 C   0  0  0  0  0  0  0  0  0  0  0  0
    1.8478   -6.4639    0.0000 C   0  0  0  0  0  0  0  0  0  0  0  0
    0.4775   -7.0740    0.0000 C   0  0  0  0  0  0  0  0  0  0  0  0
    0.1656   -8.5412    0.0000 C   0  0  0  0  0  0  0  0  0  0  0  0
   -1.3261   -8.6980    0.0000 N   0  0  0  0  0  0  0  0  0  0  0  0
   -1.9363   -7.3277    0.0000 C   0  0  0  0  0  0  0  0  0  0  0  0
   -0.8215   -6.3240    0.0000 N   0  0  0  0  0  0  0  0  0  0  0  0
  2  1  1  6
  2  3  1  0
  3  4  1  0
  4  5  1  0
  5  6  2  0
  6  7  1  0
  7  8  2  0
  8  9  1  0
  9 10  2  0
 10 11  1  0
 11 12  2  0
 12 13  1  0
 13 14  2  0
  8 15  1  0
 15 16  2  0
  4 17  2  0
 17 18  1  0
 18 19  1  6
 19 20  1  0
 20 21  2  0
 21 22  1  0
 22 23  1  0
 23 24  2  0
 18  2  1  0
 24 20  1  0
 16  5  1  0
 14  9  1  0
M  END
>  <assay_chembl_id>  (623) 
CHEMBL4192989

>  <assay_description>  (623) 
Displacement of [3H]-LSD from human 5-HT2B receptor expressed in HEK cells after 90 mins by microbeta scintillation counting analysis

>  <parent_molecule_chembl_id>  (623) 
CHEMBL4208376

>  <canonical_smiles>  (623) 
C[C@H]1SC(c2ccc(-c3ccccc3)cc2)=N[C@H]1Cc1c[nH]cn1

>  <standard_type>  (623) 
Ki

>  <standard_relation>  (623) 
=

>  <standard_value>  (623) 
1400.0

>  <standard_units>  (623) 
nM

>  <target_pref_name>  (623) 
Serotonin 2b (5-HT2b) receptor

>  <target_chembl_id>  (623) 
CHEMBL1833

>  <target_organism>  (623) 
Homo sapiens

>  <pchembl_median>  (623) 
6.0

$$$$
CHEMBL4216337
     RDKit          2D

 14 15  0  0  0  0  0  0  0  0999 V2000
    0.4775   -7.0740    0.0000 O   0  0  0  0  0  0  0  0  0  0  0  0
    1.8478   -6.4639    0.0000 C   0  0  0  0  0  0  0  0  0  0  0  0
    2.0046   -4.9721    0.0000 C   0  0  0  0  0  0  0  0  0  0  0  0
    3.3037   -4.2221    0.0000 C   0  0  0  0  0  0  0  0  0  0  0  0
    2.9918   -2.7549    0.0000 S   0  0  0  0  0  0  0  0  0  0  0  0
    1.5000   -2.5981    0.0000 C   0  0  0  0  0  0  0  0  0  0  0  0
    0.7500   -1.2990    0.0000 C   0  0  0  0  0  0  0  0  0  0  0  0
    1.5000    0.0000    0.0000 C   0  0  0  0  0  0  0  0  0  0  0  0
    0.7500    1.2990    0.0000 C   0  0  0  0  0  0  0  0  0  0  0  0
   -0.7500    1.2990    0.0000 C   0  0  0  0  0  0  0  0  0  0  0  0
   -1.5000    0.0000    0.0000 C   0  0  0  0  0  0  0  0  0  0  0  0
   -0.7500   -1.2990    0.0000 C   0  0  0  0  0  0  0  0  0  0  0  0
   -1.5000   -2.5981    0.0000 O   0  0  0  0  0  0  0  0  0  0  0  0
    0.8899   -3.9684    0.0000 N   0  0  0  0  0  0  0  0  0  0  0  0
  1  2  2  0
  2  3  1  0
  3  4  2  0
  4  5  1  0
  5  6  1  0
  6  7  1  0
  7  8  2  0
  8  9  1  0
  9 10  2  0
 10 11  1  0
 11 12  2  0
 12 13  1  0
  6 14  2  0
 14  3  1  0
 12  7  1  0
M  END
>  <assay_chembl_id>  (624) 
CHEMBL4193000

>  <assay_description>  (624) 
Displacement of [3H]-LSD from human 5-HT2B receptor expressed in baculovirus infected Sf9 cells

>  <parent_molecule_chembl_id>  (624) 
CHEMBL4216337

>  <canonical_smiles>  (624) 
O=Cc1csc(-c2ccccc2O)n1

>  <standard_type>  (624) 
Ki

>  <standard_relation>  (624) 
=

>  <standard_value>  (624) 
1500.0

>  <standard_units>  (624) 
nM

>  <target_pref_name>  (624) 
Serotonin 2b (5-HT2b) receptor

>  <target_chembl_id>  (624) 
CHEMBL1833

>  <target_organism>  (624) 
Homo sapiens

>  <pchembl_median>  (624) 
6.1

$$$$
CHEMBL4217810
     RDKit          2D

 15 16  0  0  0  0  0  0  0  0999 V2000
    4.6740   -4.8322    0.0000 C   0  0  0  0  0  0  0  0  0  0  0  0
    3.3037   -4.2221    0.0000 C   0  0  0  0  0  0  0  0  0  0  0  0
    2.9918   -2.7549    0.0000 S   0  0  0  0  0  0  0  0  0  0  0  0
    1.5000   -2.5981    0.0000 C   0  0  0  0  0  0  0  0  0  0  0  0
    0.7500   -1.2990    0.0000 C   0  0  0  0  0  0  0  0  0  0  0  0
    1.5000    0.0000    0.0000 C   0  0  0  0  0  0  0  0  0  0  0  0
    0.7500    1.2990    0.0000 C   0  0  0  0  0  0  0  0  0  0  0  0
   -0.7500    1.2990    0.0000 C   0  0  0  0  0  0  0  0  0  0  0  0
   -1.5000    0.0000    0.0000 C   0  0  0  0  0  0  0  0  0  0  0  0
   -0.7500   -1.2990    0.0000 C   0  0  0  0  0  0  0  0  0  0  0  0
   -1.5000   -2.5981    0.0000 O   0  0  0  0  0  0  0  0  0  0  0  0
    0.8899   -3.9684    0.0000 N   0  0  0  0  0  0  0  0  0  0  0  0
    2.0046   -4.9721    0.0000 C   0  0  0  0  0  0  0  0  0  0  0  0
    1.8478   -6.4639    0.0000 C   0  0  0  0  0  0  0  0  0  0  0  0
    0.4775   -7.0740    0.0000 O   0  0  0  0  0  0  0  0  0  0  0  0
  2  1  1  6
  2  3  1  0
  3  4  1  0
  4  5  1  0
  5  6  2  0
  6  7  1  0
  7  8  2  0
  8  9  1  0
  9 10  2  0
 10 11  1  0
  4 12  2  0
 12 13  1  0
 13 14  1  6
 14 15  1  0
 13  2  1  0
 10  5  1  0
M  END
>  <assay_chembl_id>  (625) 
CHEMBL4192989

>  <assay_description>  (625) 
Displacement of [3H]-LSD from human 5-HT2B receptor expressed in HEK cells after 90 mins by microbeta scintillation counting analysis

>  <parent_molecule_chembl_id>  (625) 
CHEMBL4217810

>  <canonical_smiles>  (625) 
C[C@H]1SC(c2ccccc2O)=N[C@H]1CO

>  <standard_type>  (625) 
Ki

>  <standard_relation>  (625) 
=

>  <standard_value>  (625) 
400.0

>  <standard_units>  (625) 
nM

>  <target_pref_name>  (625) 
Serotonin 2b (5-HT2b) receptor

>  <target_chembl_id>  (625) 
CHEMBL1833

>  <target_organism>  (625) 
Homo sapiens

>  <pchembl_median>  (625) 
5.17

$$$$
CHEMBL4218231
     RDKit          2D

 15 16  0  0  0  0  0  0  0  0999 V2000
    4.6740   -4.8322    0.0000 C   0  0  0  0  0  0  0  0  0  0  0  0
    3.3037   -4.2221    0.0000 C   0  0  0  0  0  0  0  0  0  0  0  0
    2.9918   -2.7549    0.0000 S   0  0  0  0  0  0  0  0  0  0  0  0
    1.5000   -2.5981    0.0000 C   0  0  0  0  0  0  0  0  0  0  0  0
    0.7500   -1.2990    0.0000 C   0  0  0  0  0  0  0  0  0  0  0  0
    1.5000    0.0000    0.0000 C   0  0  0  0  0  0  0  0  0  0  0  0
    0.7500    1.2990    0.0000 C   0  0  0  0  0  0  0  0  0  0  0  0
   -0.7500    1.2990    0.0000 C   0  0  0  0  0  0  0  0  0  0  0  0
   -1.5000    0.0000    0.0000 C   0  0  0  0  0  0  0  0  0  0  0  0
   -0.7500   -1.2990    0.0000 C   0  0  0  0  0  0  0  0  0  0  0  0
   -1.5000   -2.5981    0.0000 O   0  0  0  0  0  0  0  0  0  0  0  0
    0.8899   -3.9684    0.0000 N   0  0  0  0  0  0  0  0  0  0  0  0
    2.0046   -4.9721    0.0000 C   0  0  0  0  0  0  0  0  0  0  0  0
    1.8478   -6.4639    0.0000 C   0  0  0  0  0  0  0  0  0  0  0  0
    0.4775   -7.0740    0.0000 O   0  0  0  0  0  0  0  0  0  0  0  0
  2  1  1  6
  2  3  1  0
  3  4  1  0
  4  5  1  0
  5  6  2  0
  6  7  1  0
  7  8  2  0
  8  9  1  0
  9 10  2  0
 10 11  1  0
  4 12  2  0
 12 13  1  0
 13 14  1  1
 14 15  1  0
 13  2  1  0
 10  5  1  0
M  END
>  <assay_chembl_id>  (626) 
CHEMBL4192989

>  <assay_description>  (626) 
Displacement of [3H]-LSD from human 5-HT2B receptor expressed in HEK cells after 90 mins by microbeta scintillation counting analysis

>  <parent_molecule_chembl_id>  (626) 
CHEMBL4218231

>  <canonical_smiles>  (626) 
C[C@H]1SC(c2ccccc2O)=N[C@@H]1CO

>  <standard_type>  (626) 
Ki

>  <standard_relation>  (626) 
=

>  <standard_value>  (626) 
620.0

>  <standard_units>  (626) 
nM

>  <target_pref_name>  (626) 
Serotonin 2b (5-HT2b) receptor

>  <target_chembl_id>  (626) 
CHEMBL1833

>  <target_organism>  (626) 
Homo sapiens

>  <pchembl_median>  (626) 
7.01

$$$$
CHEMBL4207302
     RDKit          2D

 15 16  0  0  0  0  0  0  0  0999 V2000
    4.6740   -4.8322    0.0000 C   0  0  0  0  0  0  0  0  0  0  0  0
    3.3037   -4.2221    0.0000 C   0  0  0  0  0  0  0  0  0  0  0  0
    2.9918   -2.7549    0.0000 S   0  0  0  0  0  0  0  0  0  0  0  0
    1.5000   -2.5981    0.0000 C   0  0  0  0  0  0  0  0  0  0  0  0
    0.7500   -1.2990    0.0000 C   0  0  0  0  0  0  0  0  0  0  0  0
    1.5000    0.0000    0.0000 C   0  0  0  0  0  0  0  0  0  0  0  0
    0.7500    1.2990    0.0000 C   0  0  0  0  0  0  0  0  0  0  0  0
   -0.7500    1.2990    0.0000 C   0  0  0  0  0  0  0  0  0  0  0  0
   -1.5000    0.0000    0.0000 C   0  0  0  0  0  0  0  0  0  0  0  0
   -0.7500   -1.2990    0.0000 C   0  0  0  0  0  0  0  0  0  0  0  0
   -1.5000   -2.5981    0.0000 O   0  0  0  0  0  0  0  0  0  0  0  0
    0.8899   -3.9684    0.0000 N   0  0  0  0  0  0  0  0  0  0  0  0
    2.0046   -4.9721    0.0000 C   0  0  0  0  0  0  0  0  0  0  0  0
    1.8478   -6.4639    0.0000 C   0  0  0  0  0  0  0  0  0  0  0  0
    0.4775   -7.0740    0.0000 O   0  0  0  0  0  0  0  0  0  0  0  0
  2  1  1  1
  2  3  1  0
  3  4  1  0
  4  5  1  0
  5  6  2  0
  6  7  1  0
  7  8  2  0
  8  9  1  0
  9 10  2  0
 10 11  1  0
  4 12  2  0
 12 13  1  0
 13 14  1  6
 14 15  1  0
 13  2  1  0
 10  5  1  0
M  END
>  <assay_chembl_id>  (627) 
CHEMBL4192989

>  <assay_description>  (627) 
Displacement of [3H]-LSD from human 5-HT2B receptor expressed in HEK cells after 90 mins by microbeta scintillation counting analysis

>  <parent_molecule_chembl_id>  (627) 
CHEMBL4207302

>  <canonical_smiles>  (627) 
C[C@@H]1SC(c2ccccc2O)=N[C@H]1CO

>  <standard_type>  (627) 
Ki

>  <standard_relation>  (627) 
=

>  <standard_value>  (627) 
130.0

>  <standard_units>  (627) 
nM

>  <target_pref_name>  (627) 
Serotonin 2b (5-HT2b) receptor

>  <target_chembl_id>  (627) 
CHEMBL1833

>  <target_organism>  (627) 
Homo sapiens

>  <pchembl_median>  (627) 
6.06

$$$$
CHEMBL4209274
     RDKit          2D

 17 19  0  0  0  0  0  0  0  0999 V2000
    7.8229    3.1770    0.0000 F   0  0  0  0  0  0  0  0  0  0  0  0
    6.3290    3.0425    0.0000 C   0  0  0  0  0  0  0  0  0  0  0  0
    5.6984    1.6815    0.0000 C   0  0  0  0  0  0  0  0  0  0  0  0
    4.2045    1.5470    0.0000 C   0  0  0  0  0  0  0  0  0  0  0  0
    3.3411    2.7736    0.0000 C   0  0  0  0  0  0  0  0  0  0  0  0
    1.8471    2.6391    0.0000 C   0  0  0  0  0  0  0  0  0  0  0  0
    0.8602    3.7687    0.0000 N   0  0  0  0  0  0  0  0  0  0  0  0
   -0.5191    3.1792    0.0000 N   0  0  0  0  0  0  0  0  0  0  0  0
   -0.3846    1.6852    0.0000 C   0  0  0  0  0  0  0  0  0  0  0  0
    1.0777    1.3515    0.0000 C   0  0  0  0  0  0  0  0  0  0  0  0
    1.7286    0.0000    0.0000 C   0  0  0  0  0  0  0  0  0  0  0  0
    1.0777   -1.3515    0.0000 C   0  0  0  0  0  0  0  0  0  0  0  0
   -0.3846   -1.6852    0.0000 N   0  0  0  0  0  0  0  0  0  0  0  0
   -1.5574   -0.7500    0.0000 C   0  0  0  0  0  0  0  0  0  0  0  0
   -1.5574    0.7500    0.0000 C   0  0  0  0  0  0  0  0  0  0  0  0
    3.9716    4.1346    0.0000 C   0  0  0  0  0  0  0  0  0  0  0  0
    5.4656    4.2691    0.0000 C   0  0  0  0  0  0  0  0  0  0  0  0
  1  2  1  0
  2  3  2  0
  3  4  1  0
  4  5  2  0
  5  6  1  0
  6  7  2  0
  7  8  1  0
  8  9  1  0
  9 10  2  0
 10 11  1  0
 11 12  1  0
 12 13  1  0
 13 14  1  0
 14 15  1  0
  5 16  1  0
 16 17  2  0
 17  2  1  0
 10  6  1  0
 15  9  1  0
M  END
>  <assay_chembl_id>  (628) 
CHEMBL4199354

>  <assay_description>  (628) 
Displacement of [3H]LSD from human 5-HT2B receptor expressed in HEK cell membranes after 1.5 hrs by microbeta scintillation counting method

>  <parent_molecule_chembl_id>  (628) 
CHEMBL4209274

>  <canonical_smiles>  (628) 
Fc1ccc(-c2n[nH]c3c2CCNCC3)cc1

>  <standard_type>  (628) 
Ki

>  <standard_relation>  (628) 
=

>  <standard_value>  (628) 
97.0

>  <standard_units>  (628) 
nM

>  <target_pref_name>  (628) 
Serotonin 2b (5-HT2b) receptor

>  <target_chembl_id>  (628) 
CHEMBL1833

>  <target_organism>  (628) 
Homo sapiens

>  <pchembl_median>  (628) 
6.14

$$$$
CHEMBL4207884
     RDKit          2D

 17 19  0  0  0  0  0  0  0  0999 V2000
    7.8229    3.1770    0.0000 Cl  0  0  0  0  0  0  0  0  0  0  0  0
    6.3290    3.0425    0.0000 C   0  0  0  0  0  0  0  0  0  0  0  0
    5.6984    1.6815    0.0000 C   0  0  0  0  0  0  0  0  0  0  0  0
    4.2045    1.5470    0.0000 C   0  0  0  0  0  0  0  0  0  0  0  0
    3.3411    2.7736    0.0000 C   0  0  0  0  0  0  0  0  0  0  0  0
    1.8471    2.6391    0.0000 C   0  0  0  0  0  0  0  0  0  0  0  0
    0.8602    3.7687    0.0000 N   0  0  0  0  0  0  0  0  0  0  0  0
   -0.5191    3.1792    0.0000 N   0  0  0  0  0  0  0  0  0  0  0  0
   -0.3846    1.6852    0.0000 C   0  0  0  0  0  0  0  0  0  0  0  0
    1.0777    1.3515    0.0000 C   0  0  0  0  0  0  0  0  0  0  0  0
    1.7286    0.0000    0.0000 C   0  0  0  0  0  0  0  0  0  0  0  0
    1.0777   -1.3515    0.0000 C   0  0  0  0  0  0  0  0  0  0  0  0
   -0.3846   -1.6852    0.0000 N   0  0  0  0  0  0  0  0  0  0  0  0
   -1.5574   -0.7500    0.0000 C   0  0  0  0  0  0  0  0  0  0  0  0
   -1.5574    0.7500    0.0000 C   0  0  0  0  0  0  0  0  0  0  0  0
    3.9716    4.1346    0.0000 C   0  0  0  0  0  0  0  0  0  0  0  0
    5.4656    4.2691    0.0000 C   0  0  0  0  0  0  0  0  0  0  0  0
  1  2  1  0
  2  3  2  0
  3  4  1  0
  4  5  2  0
  5  6  1  0
  6  7  2  0
  7  8  1  0
  8  9  1  0
  9 10  2  0
 10 11  1  0
 11 12  1  0
 12 13  1  0
 13 14  1  0
 14 15  1  0
  5 16  1  0
 16 17  2  0
 17  2  1  0
 10  6  1  0
 15  9  1  0
M  END
>  <assay_chembl_id>  (629) 
CHEMBL4199354

>  <assay_description>  (629) 
Displacement of [3H]LSD from human 5-HT2B receptor expressed in HEK cell membranes after 1.5 hrs by microbeta scintillation counting method

>  <parent_molecule_chembl_id>  (629) 
CHEMBL4207884

>  <canonical_smiles>  (629) 
Clc1ccc(-c2n[nH]c3c2CCNCC3)cc1

>  <standard_type>  (629) 
Ki

>  <standard_relation>  (629) 
=

>  <standard_value>  (629) 
100.0

>  <standard_units>  (629) 
nM

>  <target_pref_name>  (629) 
Serotonin 2b (5-HT2b) receptor

>  <target_chembl_id>  (629) 
CHEMBL1833

>  <target_organism>  (629) 
Homo sapiens

>  <pchembl_median>  (629) 
5.92

$$$$
CHEMBL4210782
     RDKit          2D

 17 19  0  0  0  0  0  0  0  0999 V2000
    7.8229    3.1770    0.0000 C   0  0  0  0  0  0  0  0  0  0  0  0
    6.3290    3.0425    0.0000 C   0  0  0  0  0  0  0  0  0  0  0  0
    5.6984    1.6815    0.0000 C   0  0  0  0  0  0  0  0  0  0  0  0
    4.2045    1.5470    0.0000 C   0  0  0  0  0  0  0  0  0  0  0  0
    3.3411    2.7736    0.0000 C   0  0  0  0  0  0  0  0  0  0  0  0
    1.8471    2.6391    0.0000 C   0  0  0  0  0  0  0  0  0  0  0  0
    0.8602    3.7687    0.0000 N   0  0  0  0  0  0  0  0  0  0  0  0
   -0.5191    3.1792    0.0000 N   0  0  0  0  0  0  0  0  0  0  0  0
   -0.3846    1.6852    0.0000 C   0  0  0  0  0  0  0  0  0  0  0  0
    1.0777    1.3515    0.0000 C   0  0  0  0  0  0  0  0  0  0  0  0
    1.7286    0.0000    0.0000 C   0  0  0  0  0  0  0  0  0  0  0  0
    1.0777   -1.3515    0.0000 C   0  0  0  0  0  0  0  0  0  0  0  0
   -0.3846   -1.6852    0.0000 N   0  0  0  0  0  0  0  0  0  0  0  0
   -1.5574   -0.7500    0.0000 C   0  0  0  0  0  0  0  0  0  0  0  0
   -1.5574    0.7500    0.0000 C   0  0  0  0  0  0  0  0  0  0  0  0
    3.9716    4.1346    0.0000 C   0  0  0  0  0  0  0  0  0  0  0  0
    5.4656    4.2691    0.0000 C   0  0  0  0  0  0  0  0  0  0  0  0
  1  2  1  0
  2  3  2  0
  3  4  1  0
  4  5  2  0
  5  6  1  0
  6  7  2  0
  7  8  1  0
  8  9  1  0
  9 10  2  0
 10 11  1  0
 11 12  1  0
 12 13  1  0
 13 14  1  0
 14 15  1  0
  5 16  1  0
 16 17  2  0
 17  2  1  0
 10  6  1  0
 15  9  1  0
M  END
>  <assay_chembl_id>  (630) 
CHEMBL4199354

>  <assay_description>  (630) 
Displacement of [3H]LSD from human 5-HT2B receptor expressed in HEK cell membranes after 1.5 hrs by microbeta scintillation counting method

>  <parent_molecule_chembl_id>  (630) 
CHEMBL4210782

>  <canonical_smiles>  (630) 
Cc1ccc(-c2n[nH]c3c2CCNCC3)cc1

>  <standard_type>  (630) 
Ki

>  <standard_relation>  (630) 
=

>  <standard_value>  (630) 
106.0

>  <standard_units>  (630) 
nM

>  <target_pref_name>  (630) 
Serotonin 2b (5-HT2b) receptor

>  <target_chembl_id>  (630) 
CHEMBL1833

>  <target_organism>  (630) 
Homo sapiens

>  <pchembl_median>  (630) 
8.53

$$$$
CHEMBL4218672
     RDKit          2D

 17 19  0  0  0  0  0  0  0  0999 V2000
    7.8229    3.1770    0.0000 F   0  0  0  0  0  0  0  0  0  0  0  0
    6.3290    3.0425    0.0000 C   0  0  0  0  0  0  0  0  0  0  0  0
    5.6984    1.6815    0.0000 C   0  0  0  0  0  0  0  0  0  0  0  0
    4.2045    1.5470    0.0000 C   0  0  0  0  0  0  0  0  0  0  0  0
    3.3411    2.7736    0.0000 C   0  0  0  0  0  0  0  0  0  0  0  0
    1.8471    2.6391    0.0000 C   0  0  0  0  0  0  0  0  0  0  0  0
    0.8602    3.7687    0.0000 N   0  0  0  0  0  0  0  0  0  0  0  0
   -0.5191    3.1792    0.0000 O   0  0  0  0  0  0  0  0  0  0  0  0
   -0.3846    1.6852    0.0000 C   0  0  0  0  0  0  0  0  0  0  0  0
    1.0777    1.3515    0.0000 C   0  0  0  0  0  0  0  0  0  0  0  0
    1.7286    0.0000    0.0000 C   0  0  0  0  0  0  0  0  0  0  0  0
    1.0777   -1.3515    0.0000 C   0  0  0  0  0  0  0  0  0  0  0  0
   -0.3846   -1.6852    0.0000 N   0  0  0  0  0  0  0  0  0  0  0  0
   -1.5574   -0.7500    0.0000 C   0  0  0  0  0  0  0  0  0  0  0  0
   -1.5574    0.7500    0.0000 C   0  0  0  0  0  0  0  0  0  0  0  0
    3.9716    4.1346    0.0000 C   0  0  0  0  0  0  0  0  0  0  0  0
    5.4656    4.2691    0.0000 C   0  0  0  0  0  0  0  0  0  0  0  0
  1  2  1  0
  2  3  2  0
  3  4  1  0
  4  5  2  0
  5  6  1  0
  6  7  2  0
  7  8  1  0
  8  9  1  0
  9 10  2  0
 10 11  1  0
 11 12  1  0
 12 13  1  0
 13 14  1  0
 14 15  1  0
  5 16  1  0
 16 17  2  0
 17  2  1  0
 10  6  1  0
 15  9  1  0
M  END
>  <assay_chembl_id>  (631) 
CHEMBL4199354

>  <assay_description>  (631) 
Displacement of [3H]LSD from human 5-HT2B receptor expressed in HEK cell membranes after 1.5 hrs by microbeta scintillation counting method

>  <parent_molecule_chembl_id>  (631) 
CHEMBL4218672

>  <canonical_smiles>  (631) 
Fc1ccc(-c2noc3c2CCNCC3)cc1

>  <standard_type>  (631) 
Ki

>  <standard_relation>  (631) 
=

>  <standard_value>  (631) 
505.0

>  <standard_units>  (631) 
nM

>  <target_pref_name>  (631) 
Serotonin 2b (5-HT2b) receptor

>  <target_chembl_id>  (631) 
CHEMBL1833

>  <target_organism>  (631) 
Homo sapiens

>  <pchembl_median>  (631) 
6.48

$$$$
CHEMBL4218801
     RDKit          2D

 17 19  0  0  0  0  0  0  0  0999 V2000
    7.8229    3.1770    0.0000 Cl  0  0  0  0  0  0  0  0  0  0  0  0
    6.3290    3.0425    0.0000 C   0  0  0  0  0  0  0  0  0  0  0  0
    5.6984    1.6815    0.0000 C   0  0  0  0  0  0  0  0  0  0  0  0
    4.2045    1.5470    0.0000 C   0  0  0  0  0  0  0  0  0  0  0  0
    3.3411    2.7736    0.0000 C   0  0  0  0  0  0  0  0  0  0  0  0
    1.8471    2.6391    0.0000 C   0  0  0  0  0  0  0  0  0  0  0  0
    0.8602    3.7687    0.0000 N   0  0  0  0  0  0  0  0  0  0  0  0
   -0.5191    3.1792    0.0000 O   0  0  0  0  0  0  0  0  0  0  0  0
   -0.3846    1.6852    0.0000 C   0  0  0  0  0  0  0  0  0  0  0  0
    1.0777    1.3515    0.0000 C   0  0  0  0  0  0  0  0  0  0  0  0
    1.7286    0.0000    0.0000 C   0  0  0  0  0  0  0  0  0  0  0  0
    1.0777   -1.3515    0.0000 C   0  0  0  0  0  0  0  0  0  0  0  0
   -0.3846   -1.6852    0.0000 N   0  0  0  0  0  0  0  0  0  0  0  0
   -1.5574   -0.7500    0.0000 C   0  0  0  0  0  0  0  0  0  0  0  0
   -1.5574    0.7500    0.0000 C   0  0  0  0  0  0  0  0  0  0  0  0
    3.9716    4.1346    0.0000 C   0  0  0  0  0  0  0  0  0  0  0  0
    5.4656    4.2691    0.0000 C   0  0  0  0  0  0  0  0  0  0  0  0
  1  2  1  0
  2  3  2  0
  3  4  1  0
  4  5  2  0
  5  6  1  0
  6  7  2  0
  7  8  1  0
  8  9  1  0
  9 10  2  0
 10 11  1  0
 11 12  1  0
 12 13  1  0
 13 14  1  0
 14 15  1  0
  5 16  1  0
 16 17  2  0
 17  2  1  0
 10  6  1  0
 15  9  1  0
M  END
>  <assay_chembl_id>  (632) 
CHEMBL4199354

>  <assay_description>  (632) 
Displacement of [3H]LSD from human 5-HT2B receptor expressed in HEK cell membranes after 1.5 hrs by microbeta scintillation counting method

>  <parent_molecule_chembl_id>  (632) 
CHEMBL4218801

>  <canonical_smiles>  (632) 
Clc1ccc(-c2noc3c2CCNCC3)cc1

>  <standard_type>  (632) 
Ki

>  <standard_relation>  (632) 
=

>  <standard_value>  (632) 
247.0

>  <standard_units>  (632) 
nM

>  <target_pref_name>  (632) 
Serotonin 2b (5-HT2b) receptor

>  <target_chembl_id>  (632) 
CHEMBL1833

>  <target_organism>  (632) 
Homo sapiens

>  <pchembl_median>  (632) 
6.33

$$$$
CHEMBL4215875
     RDKit          2D

 17 19  0  0  0  0  0  0  0  0999 V2000
    7.8229    3.1770    0.0000 C   0  0  0  0  0  0  0  0  0  0  0  0
    6.3290    3.0425    0.0000 C   0  0  0  0  0  0  0  0  0  0  0  0
    5.6984    1.6815    0.0000 C   0  0  0  0  0  0  0  0  0  0  0  0
    4.2045    1.5470    0.0000 C   0  0  0  0  0  0  0  0  0  0  0  0
    3.3411    2.7736    0.0000 C   0  0  0  0  0  0  0  0  0  0  0  0
    1.8471    2.6391    0.0000 C   0  0  0  0  0  0  0  0  0  0  0  0
    0.8602    3.7687    0.0000 N   0  0  0  0  0  0  0  0  0  0  0  0
   -0.5191    3.1792    0.0000 O   0  0  0  0  0  0  0  0  0  0  0  0
   -0.3846    1.6852    0.0000 C   0  0  0  0  0  0  0  0  0  0  0  0
    1.0777    1.3515    0.0000 C   0  0  0  0  0  0  0  0  0  0  0  0
    1.7286    0.0000    0.0000 C   0  0  0  0  0  0  0  0  0  0  0  0
    1.0777   -1.3515    0.0000 C   0  0  0  0  0  0  0  0  0  0  0  0
   -0.3846   -1.6852    0.0000 N   0  0  0  0  0  0  0  0  0  0  0  0
   -1.5574   -0.7500    0.0000 C   0  0  0  0  0  0  0  0  0  0  0  0
   -1.5574    0.7500    0.0000 C   0  0  0  0  0  0  0  0  0  0  0  0
    3.9716    4.1346    0.0000 C   0  0  0  0  0  0  0  0  0  0  0  0
    5.4656    4.2691    0.0000 C   0  0  0  0  0  0  0  0  0  0  0  0
  1  2  1  0
  2  3  2  0
  3  4  1  0
  4  5  2  0
  5  6  1  0
  6  7  2  0
  7  8  1  0
  8  9  1  0
  9 10  2  0
 10 11  1  0
 11 12  1  0
 12 13  1  0
 13 14  1  0
 14 15  1  0
  5 16  1  0
 16 17  2  0
 17  2  1  0
 10  6  1  0
 15  9  1  0
M  END
>  <assay_chembl_id>  (633) 
CHEMBL4199354

>  <assay_description>  (633) 
Displacement of [3H]LSD from human 5-HT2B receptor expressed in HEK cell membranes after 1.5 hrs by microbeta scintillation counting method

>  <parent_molecule_chembl_id>  (633) 
CHEMBL4215875

>  <canonical_smiles>  (633) 
Cc1ccc(-c2noc3c2CCNCC3)cc1

>  <standard_type>  (633) 
Ki

>  <standard_relation>  (633) 
=

>  <standard_value>  (633) 
150.0

>  <standard_units>  (633) 
nM

>  <target_pref_name>  (633) 
Serotonin 2b (5-HT2b) receptor

>  <target_chembl_id>  (633) 
CHEMBL1833

>  <target_organism>  (633) 
Homo sapiens

>  <pchembl_median>  (633) 
5.73

$$$$
CHEMBL4282117
     RDKit          2D

 28 31  0  0  0  0  0  0  0  0999 V2000
   -3.5757   -7.5908    0.0000 O   0  0  0  0  0  0  0  0  0  0  0  0
   -4.6904   -6.5871    0.0000 C   0  0  0  0  0  0  0  0  0  0  0  0
   -4.3786   -5.1199    0.0000 N   0  0  0  0  0  0  0  0  0  0  0  0
   -2.9520   -4.6564    0.0000 C   0  0  0  0  0  0  0  0  0  0  0  0
   -2.6401   -3.1891    0.0000 C   0  0  0  0  0  0  0  0  0  0  0  0
   -1.2135   -2.7256    0.0000 C   0  0  0  0  0  0  0  0  0  0  0  0
    0.0000   -3.6073    0.0000 C   0  0  0  0  0  0  0  0  0  0  0  0
    1.2135   -2.7256    0.0000 N   0  0  0  0  0  0  0  0  0  0  0  0
    0.7500   -1.2990    0.0000 C   0  0  0  0  0  0  0  0  0  0  0  0
    1.5000    0.0000    0.0000 C   0  0  0  0  0  0  0  0  0  0  0  0
    0.7500    1.2990    0.0000 C   0  0  0  0  0  0  0  0  0  0  0  0
   -0.7500    1.2990    0.0000 C   0  0  0  0  0  0  0  0  0  0  0  0
   -1.5000    0.0000    0.0000 C   0  0  0  0  0  0  0  0  0  0  0  0
   -0.7500   -1.2990    0.0000 C   0  0  0  0  0  0  0  0  0  0  0  0
   -6.1170   -7.0506    0.0000 C   0  0  0  0  0  0  0  0  0  0  0  0
   -7.2317   -6.0469    0.0000 C   0  0  0  0  0  0  0  0  0  0  0  0
   -8.6583   -6.5105    0.0000 C   0  0  0  0  0  0  0  0  0  0  0  0
   -8.9702   -7.9777    0.0000 N   0  0  0  0  0  0  0  0  0  0  0  0
  -10.3968   -8.4412    0.0000 C   0  0  0  0  0  0  0  0  0  0  0  0
  -10.7086   -9.9084    0.0000 O   0  0  0  0  0  0  0  0  0  0  0  0
  -11.5115   -7.4375    0.0000 C   0  0  0  0  0  0  0  0  0  0  0  0
  -11.1996   -5.9703    0.0000 C   0  0  0  0  0  0  0  0  0  0  0  0
  -12.3143   -4.9666    0.0000 C   0  0  0  0  0  0  0  0  0  0  0  0
  -13.7409   -5.4301    0.0000 C   0  0  0  0  0  0  0  0  0  0  0  0
  -14.0528   -6.8974    0.0000 C   0  0  0  0  0  0  0  0  0  0  0  0
  -12.9381   -7.9010    0.0000 C   0  0  0  0  0  0  0  0  0  0  0  0
   -7.8555   -8.9814    0.0000 C   0  0  0  0  0  0  0  0  0  0  0  0
   -6.4289   -8.5179    0.0000 C   0  0  0  0  0  0  0  0  0  0  0  0
  1  2  2  0
  2  3  1  0
  3  4  1  0
  4  5  1  0
  5  6  1  0
  6  7  2  0
  7  8  1  0
  8  9  1  0
  9 10  2  0
 10 11  1  0
 11 12  2  0
 12 13  1  0
 13 14  2  0
  2 15  1  0
 15 16  1  0
 16 17  1  0
 17 18  1  0
 18 19  1  0
 19 20  2  0
 19 21  1  0
 21 22  2  0
 22 23  1  0
 23 24  2  0
 24 25  1  0
 25 26  2  0
 18 27  1  0
 27 28  1  0
 14  6  1  0
 28 15  1  0
 14  9  1  0
 26 21  1  0
M  END
>  <assay_chembl_id>  (634) 
CHEMBL4259742

>  <assay_description>  (634) 
Displacement of [3H]LSD from human 5HT2B receptor expressed in HEK cells membranes after 1.5 hrs by liquid scintillation counting method

>  <parent_molecule_chembl_id>  (634) 
CHEMBL4282117

>  <canonical_smiles>  (634) 
O=C(NCCc1c[nH]c2ccccc12)C1CCN(C(=O)c2ccccc2)CC1

>  <standard_type>  (634) 
Ki

>  <standard_relation>  (634) 
=

>  <standard_value>  (634) 
79.3

>  <standard_units>  (634) 
nM

>  <target_pref_name>  (634) 
Serotonin 2b (5-HT2b) receptor

>  <target_chembl_id>  (634) 
CHEMBL1833

>  <target_organism>  (634) 
Homo sapiens

>  <pchembl_median>  (634) 
6.6

$$$$
CHEMBL4292719
     RDKit          2D

 30 33  0  0  0  0  0  0  0  0999 V2000
    3.0000   -5.1962    0.0000 O   0  0  0  0  0  0  0  0  0  0  0  0
    1.5000   -5.1962    0.0000 C   0  0  0  0  0  0  0  0  0  0  0  0
    0.7500   -3.8971    0.0000 N   0  0  0  0  0  0  0  0  0  0  0  0
    1.5000   -2.5981    0.0000 C   0  0  0  0  0  0  0  0  0  0  0  0
    0.7500   -1.2990    0.0000 C   0  0  0  0  0  0  0  0  0  0  0  0
    1.5000    0.0000    0.0000 C   0  0  0  0  0  0  0  0  0  0  0  0
    0.7500    1.2990    0.0000 C   0  0  0  0  0  0  0  0  0  0  0  0
   -0.7500    1.2990    0.0000 C   0  0  0  0  0  0  0  0  0  0  0  0
   -1.5000    0.0000    0.0000 C   0  0  0  0  0  0  0  0  0  0  0  0
   -0.7500   -1.2990    0.0000 C   0  0  0  0  0  0  0  0  0  0  0  0
    0.7500   -6.4952    0.0000 C   0  0  0  0  0  0  0  0  0  0  0  0
   -0.7500   -6.4952    0.0000 C   0  0  0  0  0  0  0  0  0  0  0  0
   -1.5000   -7.7942    0.0000 C   0  0  0  0  0  0  0  0  0  0  0  0
   -0.7500   -9.0933    0.0000 N   0  0  0  0  0  0  0  0  0  0  0  0
   -1.5000  -10.3923    0.0000 C   0  0  0  0  0  0  0  0  0  0  0  0
   -0.7500  -11.6913    0.0000 O   0  0  0  0  0  0  0  0  0  0  0  0
   -3.0000  -10.3923    0.0000 C   0  0  0  0  0  0  0  0  0  0  0  0
   -3.7500   -9.0933    0.0000 C   0  0  0  0  0  0  0  0  0  0  0  0
   -5.2500   -9.0933    0.0000 C   0  0  0  0  0  0  0  0  0  0  0  0
   -6.0000  -10.3923    0.0000 C   0  0  0  0  0  0  0  0  0  0  0  0
   -7.5000  -10.3923    0.0000 C   0  0  0  0  0  0  0  0  0  0  0  0
   -8.2500   -9.0933    0.0000 C   0  0  0  0  0  0  0  0  0  0  0  0
   -9.7500   -9.0933    0.0000 C   0  0  0  0  0  0  0  0  0  0  0  0
  -10.5000  -10.3923    0.0000 C   0  0  0  0  0  0  0  0  0  0  0  0
   -9.7500  -11.6913    0.0000 C   0  0  0  0  0  0  0  0  0  0  0  0
   -8.2500  -11.6913    0.0000 C   0  0  0  0  0  0  0  0  0  0  0  0
   -5.2500  -11.6913    0.0000 C   0  0  0  0  0  0  0  0  0  0  0  0
   -3.7500  -11.6913    0.0000 C   0  0  0  0  0  0  0  0  0  0  0  0
    0.7500   -9.0933    0.0000 C   0  0  0  0  0  0  0  0  0  0  0  0
    1.5000   -7.7942    0.0000 C   0  0  0  0  0  0  0  0  0  0  0  0
  1  2  2  0
  2  3  1  0
  3  4  1  0
  4  5  1  0
  5  6  2  0
  6  7  1  0
  7  8  2  0
  8  9  1  0
  9 10  2  0
  2 11  1  0
 11 12  1  0
 12 13  1  0
 13 14  1  0
 14 15  1  0
 15 16  2  0
 15 17  1  0
 17 18  2  0
 18 19  1  0
 19 20  2  0
 20 21  1  0
 21 22  2  0
 22 23  1  0
 23 24  2  0
 24 25  1  0
 25 26  2  0
 20 27  1  0
 27 28  2  0
 14 29  1  0
 29 30  1  0
 10  5  1  0
 30 11  1  0
 28 17  1  0
 26 21  1  0
M  END
>  <assay_chembl_id>  (635) 
CHEMBL4259742

>  <assay_description>  (635) 
Displacement of [3H]LSD from human 5HT2B receptor expressed in HEK cells membranes after 1.5 hrs by liquid scintillation counting method

>  <parent_molecule_chembl_id>  (635) 
CHEMBL4292719

>  <canonical_smiles>  (635) 
O=C(NCc1ccccc1)C1CCN(C(=O)c2ccc(-c3ccccc3)cc2)CC1

>  <standard_type>  (635) 
Ki

>  <standard_relation>  (635) 
=

>  <standard_value>  (635) 
569.0

>  <standard_units>  (635) 
nM

>  <target_pref_name>  (635) 
Serotonin 2b (5-HT2b) receptor

>  <target_chembl_id>  (635) 
CHEMBL1833

>  <target_organism>  (635) 
Homo sapiens

>  <pchembl_median>  (635) 
6.5

$$$$
CHEMBL4292326
     RDKit          2D

 34 38  0  0  0  0  0  0  0  0999 V2000
   -3.5757   -7.5908    0.0000 O   0  0  0  0  0  0  0  0  0  0  0  0
   -4.6904   -6.5871    0.0000 C   0  0  0  0  0  0  0  0  0  0  0  0
   -4.3786   -5.1199    0.0000 N   0  0  0  0  0  0  0  0  0  0  0  0
   -2.9520   -4.6564    0.0000 C   0  0  0  0  0  0  0  0  0  0  0  0
   -2.6401   -3.1891    0.0000 C   0  0  0  0  0  0  0  0  0  0  0  0
   -1.2135   -2.7256    0.0000 C   0  0  0  0  0  0  0  0  0  0  0  0
    0.0000   -3.6073    0.0000 C   0  0  0  0  0  0  0  0  0  0  0  0
    1.2135   -2.7256    0.0000 N   0  0  0  0  0  0  0  0  0  0  0  0
    0.7500   -1.2990    0.0000 C   0  0  0  0  0  0  0  0  0  0  0  0
    1.5000    0.0000    0.0000 C   0  0  0  0  0  0  0  0  0  0  0  0
    0.7500    1.2990    0.0000 C   0  0  0  0  0  0  0  0  0  0  0  0
   -0.7500    1.2990    0.0000 C   0  0  0  0  0  0  0  0  0  0  0  0
   -1.5000    0.0000    0.0000 C   0  0  0  0  0  0  0  0  0  0  0  0
   -0.7500   -1.2990    0.0000 C   0  0  0  0  0  0  0  0  0  0  0  0
   -6.1170   -7.0506    0.0000 C   0  0  0  0  0  0  0  0  0  0  0  0
   -7.2317   -6.0469    0.0000 C   0  0  0  0  0  0  0  0  0  0  0  0
   -8.6583   -6.5105    0.0000 C   0  0  0  0  0  0  0  0  0  0  0  0
   -8.9702   -7.9777    0.0000 N   0  0  0  0  0  0  0  0  0  0  0  0
  -10.3968   -8.4412    0.0000 C   0  0  0  0  0  0  0  0  0  0  0  0
  -10.7086   -9.9084    0.0000 O   0  0  0  0  0  0  0  0  0  0  0  0
  -11.5115   -7.4375    0.0000 C   0  0  0  0  0  0  0  0  0  0  0  0
  -11.1996   -5.9703    0.0000 C   0  0  0  0  0  0  0  0  0  0  0  0
  -12.3143   -4.9666    0.0000 C   0  0  0  0  0  0  0  0  0  0  0  0
  -13.7409   -5.4301    0.0000 C   0  0  0  0  0  0  0  0  0  0  0  0
  -14.8556   -4.4264    0.0000 C   0  0  0  0  0  0  0  0  0  0  0  0
  -14.5438   -2.9592    0.0000 C   0  0  0  0  0  0  0  0  0  0  0  0
  -15.6585   -1.9555    0.0000 C   0  0  0  0  0  0  0  0  0  0  0  0
  -17.0851   -2.4190    0.0000 C   0  0  0  0  0  0  0  0  0  0  0  0
  -17.3969   -3.8863    0.0000 C   0  0  0  0  0  0  0  0  0  0  0  0
  -16.2822   -4.8900    0.0000 C   0  0  0  0  0  0  0  0  0  0  0  0
  -14.0528   -6.8974    0.0000 C   0  0  0  0  0  0  0  0  0  0  0  0
  -12.9381   -7.9010    0.0000 C   0  0  0  0  0  0  0  0  0  0  0  0
   -7.8555   -8.9814    0.0000 C   0  0  0  0  0  0  0  0  0  0  0  0
   -6.4289   -8.5179    0.0000 C   0  0  0  0  0  0  0  0  0  0  0  0
  1  2  2  0
  2  3  1  0
  3  4  1  0
  4  5  1  0
  5  6  1  0
  6  7  2  0
  7  8  1  0
  8  9  1  0
  9 10  2  0
 10 11  1  0
 11 12  2  0
 12 13  1  0
 13 14  2  0
  2 15  1  0
 15 16  1  0
 16 17  1  0
 17 18  1  0
 18 19  1  0
 19 20  2  0
 19 21  1  0
 21 22  2  0
 22 23  1  0
 23 24  2  0
 24 25  1  0
 25 26  2  0
 26 27  1  0
 27 28  2  0
 28 29  1  0
 29 30  2  0
 24 31  1  0
 31 32  2  0
 18 33  1  0
 33 34  1  0
 14  6  1  0
 34 15  1  0
 14  9  1  0
 32 21  1  0
 30 25  1  0
M  END
>  <assay_chembl_id>  (636) 
CHEMBL4259742

>  <assay_description>  (636) 
Displacement of [3H]LSD from human 5HT2B receptor expressed in HEK cells membranes after 1.5 hrs by liquid scintillation counting method

>  <parent_molecule_chembl_id>  (636) 
CHEMBL4292326

>  <canonical_smiles>  (636) 
O=C(NCCc1c[nH]c2ccccc12)C1CCN(C(=O)c2ccc(-c3ccccc3)cc2)CC1

>  <standard_type>  (636) 
Ki

>  <standard_relation>  (636) 
=

>  <standard_value>  (636) 
4.5

>  <standard_units>  (636) 
nM

>  <target_pref_name>  (636) 
Serotonin 2b (5-HT2b) receptor

>  <target_chembl_id>  (636) 
CHEMBL1833

>  <target_organism>  (636) 
Homo sapiens

>  <pchembl_median>  (636) 
5.52

$$$$
CHEMBL4287623
     RDKit          2D

 37 40  0  0  0  0  0  0  0  0999 V2000
    2.6491   -1.6339    0.0000 O   0  0  0  0  0  0  0  0  0  0  0  0
    1.5000   -2.5981    0.0000 C   0  0  0  0  0  0  0  0  0  0  0  0
    0.7500   -1.2990    0.0000 C   0  0  0  0  0  0  0  0  0  0  0  0
    1.5000    0.0000    0.0000 C   0  0  0  0  0  0  0  0  0  0  0  0
    0.7500    1.2990    0.0000 C   0  0  0  0  0  0  0  0  0  0  0  0
   -0.7500    1.2990    0.0000 C   0  0  0  0  0  0  0  0  0  0  0  0
   -1.5000    2.5981    0.0000 Cl  0  0  0  0  0  0  0  0  0  0  0  0
   -1.5000    0.0000    0.0000 C   0  0  0  0  0  0  0  0  0  0  0  0
   -3.0000    0.0000    0.0000 C   0  0  0  0  0  0  0  0  0  0  0  0
   -4.5000    0.0000    0.0000 F   0  0  0  0  0  0  0  0  0  0  0  0
   -3.0000    1.5000    0.0000 F   0  0  0  0  0  0  0  0  0  0  0  0
   -3.0000   -1.5000    0.0000 F   0  0  0  0  0  0  0  0  0  0  0  0
   -0.7500   -1.2990    0.0000 C   0  0  0  0  0  0  0  0  0  0  0  0
    0.0905   -3.1111    0.0000 C   0  0  0  0  0  0  0  0  0  0  0  0
   -0.1700   -4.5883    0.0000 C   0  0  0  0  0  0  0  0  0  0  0  0
    0.9791   -5.5525    0.0000 N   0  0  0  0  0  0  0  0  0  0  0  0
    0.7186   -7.0297    0.0000 C   0  0  0  0  0  0  0  0  0  0  0  0
   -0.6910   -7.5427    0.0000 C   0  0  0  0  0  0  0  0  0  0  0  0
   -0.9514   -9.0200    0.0000 C   0  0  0  0  0  0  0  0  0  0  0  0
   -2.3610   -9.5330    0.0000 C   0  0  0  0  0  0  0  0  0  0  0  0
   -2.6214  -11.0102    0.0000 C   0  0  0  0  0  0  0  0  0  0  0  0
   -4.0310  -11.5232    0.0000 C   0  0  0  0  0  0  0  0  0  0  0  0
   -5.1800  -10.5590    0.0000 C   0  0  0  0  0  0  0  0  0  0  0  0
   -6.5896  -11.0721    0.0000 C   0  0  0  0  0  0  0  0  0  0  0  0
   -6.8501  -12.5493    0.0000 C   0  0  0  0  0  0  0  0  0  0  0  0
   -8.2596  -13.0623    0.0000 F   0  0  0  0  0  0  0  0  0  0  0  0
   -5.7010  -13.5135    0.0000 C   0  0  0  0  0  0  0  0  0  0  0  0
   -4.2915  -13.0004    0.0000 C   0  0  0  0  0  0  0  0  0  0  0  0
   -1.4724  -11.9744    0.0000 C   0  0  0  0  0  0  0  0  0  0  0  0
   -1.7328  -13.4516    0.0000 C   0  0  0  0  0  0  0  0  0  0  0  0
   -0.5838  -14.4158    0.0000 C   0  0  0  0  0  0  0  0  0  0  0  0
    0.8258  -13.9027    0.0000 C   0  0  0  0  0  0  0  0  0  0  0  0
    1.9748  -14.8669    0.0000 F   0  0  0  0  0  0  0  0  0  0  0  0
    1.0862  -12.4255    0.0000 C   0  0  0  0  0  0  0  0  0  0  0  0
   -0.0628  -11.4613    0.0000 C   0  0  0  0  0  0  0  0  0  0  0  0
    2.3886   -5.0395    0.0000 C   0  0  0  0  0  0  0  0  0  0  0  0
    2.6491   -3.5623    0.0000 C   0  0  0  0  0  0  0  0  0  0  0  0
  1  2  1  0
  2  3  1  0
  3  4  2  0
  4  5  1  0
  5  6  2  0
  6  7  1  0
  6  8  1  0
  8  9  1  0
  9 10  1  0
  9 11  1  0
  9 12  1  0
  8 13  2  0
  2 14  1  0
 14 15  1  0
 15 16  1  0
 16 17  1  0
 17 18  1  0
 18 19  1  0
 19 20  1  0
 20 21  2  3
 21 22  1  0
 22 23  2  0
 23 24  1  0
 24 25  2  0
 25 26  1  0
 25 27  1  0
 27 28  2  0
 21 29  1  0
 29 30  2  0
 30 31  1  0
 31 32  2  0
 32 33  1  0
 32 34  1  0
 34 35  2  0
 16 36  1  0
 36 37  1  0
 37  2  1  0
 13  3  1  0
 28 22  1  0
 35 29  1  0
M  END
>  <assay_chembl_id>  (637) 
CHEMBL4260800

>  <assay_description>  (637) 
Displacement of [3H]LSD from human 5-HT2B receptor expressed in HEK cells by radioligand binding assay

>  <parent_molecule_chembl_id>  (637) 
CHEMBL4287623

>  <canonical_smiles>  (637) 
OC1(c2ccc(Cl)c(C(F)(F)F)c2)CCN(CCCC=C(c2ccc(F)cc2)c2ccc(F)cc2)CC1

>  <standard_type>  (637) 
Ki

>  <standard_relation>  (637) 
=

>  <standard_value>  (637) 
2199.0

>  <standard_units>  (637) 
nM

>  <target_pref_name>  (637) 
Serotonin 2b (5-HT2b) receptor

>  <target_chembl_id>  (637) 
CHEMBL1833

>  <target_organism>  (637) 
Homo sapiens

>  <pchembl_median>  (637) 
6.99

$$$$
CHEMBL4291048
     RDKit          2D

 36 39  0  0  0  0  0  0  0  0999 V2000
    2.6491   -1.6339    0.0000 O   0  0  0  0  0  0  0  0  0  0  0  0
    1.5000   -2.5981    0.0000 C   0  0  0  0  0  0  0  0  0  0  0  0
    0.7500   -1.2990    0.0000 C   0  0  0  0  0  0  0  0  0  0  0  0
    1.5000    0.0000    0.0000 C   0  0  0  0  0  0  0  0  0  0  0  0
    0.7500    1.2990    0.0000 C   0  0  0  0  0  0  0  0  0  0  0  0
   -0.7500    1.2990    0.0000 C   0  0  0  0  0  0  0  0  0  0  0  0
   -1.5000    2.5981    0.0000 Cl  0  0  0  0  0  0  0  0  0  0  0  0
   -1.5000    0.0000    0.0000 C   0  0  0  0  0  0  0  0  0  0  0  0
   -3.0000    0.0000    0.0000 C   0  0  0  0  0  0  0  0  0  0  0  0
   -4.5000    0.0000    0.0000 F   0  0  0  0  0  0  0  0  0  0  0  0
   -3.0000    1.5000    0.0000 F   0  0  0  0  0  0  0  0  0  0  0  0
   -3.0000   -1.5000    0.0000 F   0  0  0  0  0  0  0  0  0  0  0  0
   -0.7500   -1.2990    0.0000 C   0  0  0  0  0  0  0  0  0  0  0  0
    0.0905   -3.1111    0.0000 C   0  0  0  0  0  0  0  0  0  0  0  0
   -0.1700   -4.5883    0.0000 C   0  0  0  0  0  0  0  0  0  0  0  0
    0.9791   -5.5525    0.0000 N   0  0  0  0  0  0  0  0  0  0  0  0
    0.7186   -7.0297    0.0000 C   0  0  0  0  0  0  0  0  0  0  0  0
   -0.6910   -7.5427    0.0000 C   0  0  0  0  0  0  0  0  0  0  0  0
   -0.9514   -9.0200    0.0000 C   0  0  0  0  0  0  0  0  0  0  0  0
   -2.3610   -9.5330    0.0000 N   0  0  0  0  0  0  0  0  0  0  0  0
   -2.6214  -11.0102    0.0000 C   0  0  0  0  0  0  0  0  0  0  0  0
   -4.0310  -11.5232    0.0000 C   0  0  0  0  0  0  0  0  0  0  0  0
   -4.2915  -13.0004    0.0000 C   0  0  0  0  0  0  0  0  0  0  0  0
   -3.1424  -13.9646    0.0000 C   0  0  0  0  0  0  0  0  0  0  0  0
   -3.4029  -15.4418    0.0000 F   0  0  0  0  0  0  0  0  0  0  0  0
   -1.7328  -13.4516    0.0000 C   0  0  0  0  0  0  0  0  0  0  0  0
   -1.4724  -11.9744    0.0000 C   0  0  0  0  0  0  0  0  0  0  0  0
   -3.5100   -8.5688    0.0000 C   0  0  0  0  0  0  0  0  0  0  0  0
   -3.2496   -7.0916    0.0000 C   0  0  0  0  0  0  0  0  0  0  0  0
   -4.3986   -6.1274    0.0000 C   0  0  0  0  0  0  0  0  0  0  0  0
   -5.8082   -6.6404    0.0000 C   0  0  0  0  0  0  0  0  0  0  0  0
   -6.9572   -5.6763    0.0000 F   0  0  0  0  0  0  0  0  0  0  0  0
   -6.0686   -8.1177    0.0000 C   0  0  0  0  0  0  0  0  0  0  0  0
   -4.9196   -9.0818    0.0000 C   0  0  0  0  0  0  0  0  0  0  0  0
    2.3886   -5.0395    0.0000 C   0  0  0  0  0  0  0  0  0  0  0  0
    2.6491   -3.5623    0.0000 C   0  0  0  0  0  0  0  0  0  0  0  0
  1  2  1  0
  2  3  1  0
  3  4  2  0
  4  5  1  0
  5  6  2  0
  6  7  1  0
  6  8  1  0
  8  9  1  0
  9 10  1  0
  9 11  1  0
  9 12  1  0
  8 13  2  0
  2 14  1  0
 14 15  1  0
 15 16  1  0
 16 17  1  0
 17 18  1  0
 18 19  1  0
 19 20  1  0
 20 21  1  0
 21 22  2  0
 22 23  1  0
 23 24  2  0
 24 25  1  0
 24 26  1  0
 26 27  2  0
 20 28  1  0
 28 29  2  0
 29 30  1  0
 30 31  2  0
 31 32  1  0
 31 33  1  0
 33 34  2  0
 16 35  1  0
 35 36  1  0
 36  2  1  0
 13  3  1  0
 27 21  1  0
 34 28  1  0
M  END
>  <assay_chembl_id>  (638) 
CHEMBL4260800

>  <assay_description>  (638) 
Displacement of [3H]LSD from human 5-HT2B receptor expressed in HEK cells by radioligand binding assay

>  <parent_molecule_chembl_id>  (638) 
CHEMBL4291048

>  <canonical_smiles>  (638) 
OC1(c2ccc(Cl)c(C(F)(F)F)c2)CCN(CCCN(c2ccc(F)cc2)c2ccc(F)cc2)CC1

>  <standard_type>  (638) 
Ki

>  <standard_relation>  (638) 
=

>  <standard_value>  (638) 
177.0

>  <standard_units>  (638) 
nM

>  <target_pref_name>  (638) 
Serotonin 2b (5-HT2b) receptor

>  <target_chembl_id>  (638) 
CHEMBL1833

>  <target_organism>  (638) 
Homo sapiens

>  <pchembl_median>  (638) 
5.57

$$$$
CHEMBL4278465
     RDKit          2D

 37 40  0  0  0  0  0  0  0  0999 V2000
    2.6491   -1.6339    0.0000 O   0  0  0  0  0  0  0  0  0  0  0  0
    1.5000   -2.5981    0.0000 C   0  0  0  0  0  0  0  0  0  0  0  0
    0.7500   -1.2990    0.0000 C   0  0  0  0  0  0  0  0  0  0  0  0
    1.5000    0.0000    0.0000 C   0  0  0  0  0  0  0  0  0  0  0  0
    0.7500    1.2990    0.0000 C   0  0  0  0  0  0  0  0  0  0  0  0
   -0.7500    1.2990    0.0000 C   0  0  0  0  0  0  0  0  0  0  0  0
   -1.5000    2.5981    0.0000 Cl  0  0  0  0  0  0  0  0  0  0  0  0
   -1.5000    0.0000    0.0000 C   0  0  0  0  0  0  0  0  0  0  0  0
   -3.0000    0.0000    0.0000 C   0  0  0  0  0  0  0  0  0  0  0  0
   -4.5000    0.0000    0.0000 F   0  0  0  0  0  0  0  0  0  0  0  0
   -3.0000    1.5000    0.0000 F   0  0  0  0  0  0  0  0  0  0  0  0
   -3.0000   -1.5000    0.0000 F   0  0  0  0  0  0  0  0  0  0  0  0
   -0.7500   -1.2990    0.0000 C   0  0  0  0  0  0  0  0  0  0  0  0
    0.0905   -3.1111    0.0000 C   0  0  0  0  0  0  0  0  0  0  0  0
   -0.1700   -4.5883    0.0000 C   0  0  0  0  0  0  0  0  0  0  0  0
    0.9791   -5.5525    0.0000 N   0  0  0  0  0  0  0  0  0  0  0  0
    0.7186   -7.0297    0.0000 C   0  0  0  0  0  0  0  0  0  0  0  0
   -0.6910   -7.5427    0.0000 C   0  0  0  0  0  0  0  0  0  0  0  0
   -0.9514   -9.0200    0.0000 C   0  0  0  0  0  0  0  0  0  0  0  0
   -2.3610   -9.5330    0.0000 C   0  0  0  0  0  0  0  0  0  0  0  0
   -2.6214  -11.0102    0.0000 N   0  0  0  0  0  0  0  0  0  0  0  0
   -4.0310  -11.5232    0.0000 C   0  0  0  0  0  0  0  0  0  0  0  0
   -5.1800  -10.5590    0.0000 C   0  0  0  0  0  0  0  0  0  0  0  0
   -6.5896  -11.0721    0.0000 C   0  0  0  0  0  0  0  0  0  0  0  0
   -6.8501  -12.5493    0.0000 C   0  0  0  0  0  0  0  0  0  0  0  0
   -8.2596  -13.0623    0.0000 F   0  0  0  0  0  0  0  0  0  0  0  0
   -5.7010  -13.5135    0.0000 C   0  0  0  0  0  0  0  0  0  0  0  0
   -4.2915  -13.0004    0.0000 C   0  0  0  0  0  0  0  0  0  0  0  0
   -1.4724  -11.9744    0.0000 C   0  0  0  0  0  0  0  0  0  0  0  0
   -1.7328  -13.4516    0.0000 C   0  0  0  0  0  0  0  0  0  0  0  0
   -0.5838  -14.4158    0.0000 C   0  0  0  0  0  0  0  0  0  0  0  0
    0.8258  -13.9027    0.0000 C   0  0  0  0  0  0  0  0  0  0  0  0
    1.9748  -14.8669    0.0000 F   0  0  0  0  0  0  0  0  0  0  0  0
    1.0862  -12.4255    0.0000 C   0  0  0  0  0  0  0  0  0  0  0  0
   -0.0628  -11.4613    0.0000 C   0  0  0  0  0  0  0  0  0  0  0  0
    2.3886   -5.0395    0.0000 C   0  0  0  0  0  0  0  0  0  0  0  0
    2.6491   -3.5623    0.0000 C   0  0  0  0  0  0  0  0  0  0  0  0
  1  2  1  0
  2  3  1  0
  3  4  2  0
  4  5  1  0
  5  6  2  0
  6  7  1  0
  6  8  1  0
  8  9  1  0
  9 10  1  0
  9 11  1  0
  9 12  1  0
  8 13  2  0
  2 14  1  0
 14 15  1  0
 15 16  1  0
 16 17  1  0
 17 18  1  0
 18 19  1  0
 19 20  1  0
 20 21  1  0
 21 22  1  0
 22 23  2  0
 23 24  1  0
 24 25  2  0
 25 26  1  0
 25 27  1  0
 27 28  2  0
 21 29  1  0
 29 30  2  0
 30 31  1  0
 31 32  2  0
 32 33  1  0
 32 34  1  0
 34 35  2  0
 16 36  1  0
 36 37  1  0
 37  2  1  0
 13  3  1  0
 28 22  1  0
 35 29  1  0
M  END
>  <assay_chembl_id>  (639) 
CHEMBL4260800

>  <assay_description>  (639) 
Displacement of [3H]LSD from human 5-HT2B receptor expressed in HEK cells by radioligand binding assay

>  <parent_molecule_chembl_id>  (639) 
CHEMBL4278465

>  <canonical_smiles>  (639) 
OC1(c2ccc(Cl)c(C(F)(F)F)c2)CCN(CCCCN(c2ccc(F)cc2)c2ccc(F)cc2)CC1

>  <standard_type>  (639) 
Ki

>  <standard_relation>  (639) 
=

>  <standard_value>  (639) 
509.0

>  <standard_units>  (639) 
nM

>  <target_pref_name>  (639) 
Serotonin 2b (5-HT2b) receptor

>  <target_chembl_id>  (639) 
CHEMBL1833

>  <target_organism>  (639) 
Homo sapiens

>  <pchembl_median>  (639) 
6.38

$$$$
CHEMBL1644978
     RDKit          2D

 37 40  0  0  0  0  0  0  0  0999 V2000
    2.6491   -1.6339    0.0000 O   0  0  0  0  0  0  0  0  0  0  0  0
    1.5000   -2.5981    0.0000 C   0  0  0  0  0  0  0  0  0  0  0  0
    0.7500   -1.2990    0.0000 C   0  0  0  0  0  0  0  0  0  0  0  0
    1.5000    0.0000    0.0000 C   0  0  0  0  0  0  0  0  0  0  0  0
    0.7500    1.2990    0.0000 C   0  0  0  0  0  0  0  0  0  0  0  0
   -0.7500    1.2990    0.0000 C   0  0  0  0  0  0  0  0  0  0  0  0
   -1.5000    2.5981    0.0000 Cl  0  0  0  0  0  0  0  0  0  0  0  0
   -1.5000    0.0000    0.0000 C   0  0  0  0  0  0  0  0  0  0  0  0
   -3.0000    0.0000    0.0000 C   0  0  0  0  0  0  0  0  0  0  0  0
   -4.5000    0.0000    0.0000 F   0  0  0  0  0  0  0  0  0  0  0  0
   -3.0000    1.5000    0.0000 F   0  0  0  0  0  0  0  0  0  0  0  0
   -3.0000   -1.5000    0.0000 F   0  0  0  0  0  0  0  0  0  0  0  0
   -0.7500   -1.2990    0.0000 C   0  0  0  0  0  0  0  0  0  0  0  0
    0.0905   -3.1111    0.0000 C   0  0  0  0  0  0  0  0  0  0  0  0
   -0.1700   -4.5883    0.0000 C   0  0  0  0  0  0  0  0  0  0  0  0
    0.9791   -5.5525    0.0000 N   0  0  0  0  0  0  0  0  0  0  0  0
    0.7186   -7.0297    0.0000 C   0  0  0  0  0  0  0  0  0  0  0  0
   -0.6910   -7.5427    0.0000 C   0  0  0  0  0  0  0  0  0  0  0  0
   -0.9514   -9.0200    0.0000 C   0  0  0  0  0  0  0  0  0  0  0  0
   -2.3610   -9.5330    0.0000 C   0  0  0  0  0  0  0  0  0  0  0  0
   -2.6214  -11.0102    0.0000 C   0  0  0  0  0  0  0  0  0  0  0  0
   -4.0310  -11.5232    0.0000 C   0  0  0  0  0  0  0  0  0  0  0  0
   -5.1800  -10.5590    0.0000 C   0  0  0  0  0  0  0  0  0  0  0  0
   -6.5896  -11.0721    0.0000 C   0  0  0  0  0  0  0  0  0  0  0  0
   -6.8501  -12.5493    0.0000 C   0  0  0  0  0  0  0  0  0  0  0  0
   -8.2596  -13.0623    0.0000 F   0  0  0  0  0  0  0  0  0  0  0  0
   -5.7010  -13.5135    0.0000 C   0  0  0  0  0  0  0  0  0  0  0  0
   -4.2915  -13.0004    0.0000 C   0  0  0  0  0  0  0  0  0  0  0  0
   -1.4724  -11.9744    0.0000 C   0  0  0  0  0  0  0  0  0  0  0  0
   -1.7328  -13.4516    0.0000 C   0  0  0  0  0  0  0  0  0  0  0  0
   -0.5838  -14.4158    0.0000 C   0  0  0  0  0  0  0  0  0  0  0  0
    0.8258  -13.9027    0.0000 C   0  0  0  0  0  0  0  0  0  0  0  0
    1.9748  -14.8669    0.0000 F   0  0  0  0  0  0  0  0  0  0  0  0
    1.0862  -12.4255    0.0000 C   0  0  0  0  0  0  0  0  0  0  0  0
   -0.0628  -11.4613    0.0000 C   0  0  0  0  0  0  0  0  0  0  0  0
    2.3886   -5.0395    0.0000 C   0  0  0  0  0  0  0  0  0  0  0  0
    2.6491   -3.5623    0.0000 C   0  0  0  0  0  0  0  0  0  0  0  0
  1  2  1  0
  2  3  1  0
  3  4  2  0
  4  5  1  0
  5  6  2  0
  6  7  1  0
  6  8  1  0
  8  9  1  0
  9 10  1  0
  9 11  1  0
  9 12  1  0
  8 13  2  0
  2 14  1  0
 14 15  1  0
 15 16  1  0
 16 17  1  0
 17 18  1  0
 18 19  1  0
 19 20  1  0
 20 21  1  0
 21 22  1  0
 22 23  2  0
 23 24  1  0
 24 25  2  0
 25 26  1  0
 25 27  1  0
 27 28  2  0
 21 29  1  0
 29 30  2  0
 30 31  1  0
 31 32  2  0
 32 33  1  0
 32 34  1  0
 34 35  2  0
 16 36  1  0
 36 37  1  0
 37  2  1  0
 13  3  1  0
 28 22  1  0
 35 29  1  0
M  END
>  <assay_chembl_id>  (640) 
CHEMBL4260800

>  <assay_description>  (640) 
Displacement of [3H]LSD from human 5-HT2B receptor expressed in HEK cells by radioligand binding assay

>  <parent_molecule_chembl_id>  (640) 
CHEMBL1644978

>  <canonical_smiles>  (640) 
OC1(c2ccc(Cl)c(C(F)(F)F)c2)CCN(CCCCC(c2ccc(F)cc2)c2ccc(F)cc2)CC1

>  <standard_type>  (640) 
Ki

>  <standard_relation>  (640) 
=

>  <standard_value>  (640) 
423.0

>  <standard_units>  (640) 
nM

>  <target_pref_name>  (640) 
Serotonin 2b (5-HT2b) receptor

>  <target_chembl_id>  (640) 
CHEMBL1833

>  <target_organism>  (640) 
Homo sapiens

>  <pchembl_median>  (640) 
6.26

$$$$
CHEMBL1644980
     RDKit          2D

 34 37  0  0  0  0  0  0  0  0999 V2000
    2.6491   -1.6339    0.0000 O   0  0  0  0  0  0  0  0  0  0  0  0
    1.5000   -2.5981    0.0000 C   0  0  0  0  0  0  0  0  0  0  0  0
    0.7500   -1.2990    0.0000 C   0  0  0  0  0  0  0  0  0  0  0  0
    1.5000    0.0000    0.0000 C   0  0  0  0  0  0  0  0  0  0  0  0
    0.7500    1.2990    0.0000 C   0  0  0  0  0  0  0  0  0  0  0  0
   -0.7500    1.2990    0.0000 C   0  0  0  0  0  0  0  0  0  0  0  0
   -1.5000    2.5981    0.0000 Cl  0  0  0  0  0  0  0  0  0  0  0  0
   -1.5000    0.0000    0.0000 C   0  0  0  0  0  0  0  0  0  0  0  0
   -3.0000    0.0000    0.0000 C   0  0  0  0  0  0  0  0  0  0  0  0
   -4.5000    0.0000    0.0000 F   0  0  0  0  0  0  0  0  0  0  0  0
   -3.0000    1.5000    0.0000 F   0  0  0  0  0  0  0  0  0  0  0  0
   -3.0000   -1.5000    0.0000 F   0  0  0  0  0  0  0  0  0  0  0  0
   -0.7500   -1.2990    0.0000 C   0  0  0  0  0  0  0  0  0  0  0  0
    0.0905   -3.1111    0.0000 C   0  0  0  0  0  0  0  0  0  0  0  0
   -0.1700   -4.5883    0.0000 C   0  0  0  0  0  0  0  0  0  0  0  0
    0.9791   -5.5525    0.0000 N   0  0  0  0  0  0  0  0  0  0  0  0
    0.7186   -7.0297    0.0000 C   0  0  0  0  0  0  0  0  0  0  0  0
   -0.6910   -7.5427    0.0000 C   0  0  0  0  0  0  0  0  0  0  0  0
   -0.9514   -9.0200    0.0000 C   0  0  0  0  0  0  0  0  0  0  0  0
   -2.3610   -9.5330    0.0000 C   0  0  0  0  0  0  0  0  0  0  0  0
   -2.6214  -11.0102    0.0000 C   0  0  0  0  0  0  0  0  0  0  0  0
   -4.0310  -11.5232    0.0000 C   0  0  0  0  0  0  0  0  0  0  0  0
   -4.2915  -13.0004    0.0000 C   0  0  0  0  0  0  0  0  0  0  0  0
   -3.1424  -13.9646    0.0000 C   0  0  0  0  0  0  0  0  0  0  0  0
   -1.7328  -13.4516    0.0000 C   0  0  0  0  0  0  0  0  0  0  0  0
   -1.4724  -11.9744    0.0000 C   0  0  0  0  0  0  0  0  0  0  0  0
   -3.5100   -8.5688    0.0000 C   0  0  0  0  0  0  0  0  0  0  0  0
   -3.2496   -7.0916    0.0000 C   0  0  0  0  0  0  0  0  0  0  0  0
   -4.3986   -6.1274    0.0000 C   0  0  0  0  0  0  0  0  0  0  0  0
   -5.8082   -6.6404    0.0000 C   0  0  0  0  0  0  0  0  0  0  0  0
   -6.0686   -8.1177    0.0000 C   0  0  0  0  0  0  0  0  0  0  0  0
   -4.9196   -9.0818    0.0000 C   0  0  0  0  0  0  0  0  0  0  0  0
    2.3886   -5.0395    0.0000 C   0  0  0  0  0  0  0  0  0  0  0  0
    2.6491   -3.5623    0.0000 C   0  0  0  0  0  0  0  0  0  0  0  0
  1  2  1  0
  2  3  1  0
  3  4  2  0
  4  5  1  0
  5  6  2  0
  6  7  1  0
  6  8  1  0
  8  9  1  0
  9 10  1  0
  9 11  1  0
  9 12  1  0
  8 13  2  0
  2 14  1  0
 14 15  1  0
 15 16  1  0
 16 17  1  0
 17 18  1  0
 18 19  1  0
 19 20  1  0
 20 21  1  0
 21 22  2  0
 22 23  1  0
 23 24  2  0
 24 25  1  0
 25 26  2  0
 20 27  1  0
 27 28  2  0
 28 29  1  0
 29 30  2  0
 30 31  1  0
 31 32  2  0
 16 33  1  0
 33 34  1  0
 34  2  1  0
 13  3  1  0
 26 21  1  0
 32 27  1  0
M  END
>  <assay_chembl_id>  (641) 
CHEMBL4260800

>  <assay_description>  (641) 
Displacement of [3H]LSD from human 5-HT2B receptor expressed in HEK cells by radioligand binding assay

>  <parent_molecule_chembl_id>  (641) 
CHEMBL1644980

>  <canonical_smiles>  (641) 
OC1(c2ccc(Cl)c(C(F)(F)F)c2)CCN(CCCC(c2ccccc2)c2ccccc2)CC1

>  <standard_type>  (641) 
Ki

>  <standard_relation>  (641) 
=

>  <standard_value>  (641) 
374.0

>  <standard_units>  (641) 
nM

>  <target_pref_name>  (641) 
Serotonin 2b (5-HT2b) receptor

>  <target_chembl_id>  (641) 
CHEMBL1833

>  <target_organism>  (641) 
Homo sapiens

>  <pchembl_median>  (641) 
5.54

$$$$
CHEMBL4293307
     RDKit          2D

 39 42  0  0  0  0  0  0  0  0999 V2000
    3.7500   -1.2990    0.0000 C   0  0  0  0  0  0  0  0  0  0  0  0
    3.0000    0.0000    0.0000 O   0  0  0  0  0  0  0  0  0  0  0  0
    1.5000    0.0000    0.0000 C   0  0  0  0  0  0  0  0  0  0  0  0
    0.7500   -1.2990    0.0000 C   0  0  0  0  0  0  0  0  0  0  0  0
   -0.7500   -1.2990    0.0000 C   0  0  0  0  0  0  0  0  0  0  0  0
   -1.5000    0.0000    0.0000 C   0  0  0  0  0  0  0  0  0  0  0  0
   -3.0000    0.0000    0.0000 N   0  0  0  0  0  0  0  0  0  0  0  0
   -3.7500    1.2990    0.0000 C   0  0  0  0  0  0  0  0  0  0  0  0
   -5.2500    1.2990    0.0000 C   0  0  0  0  0  0  0  0  0  0  0  0
   -6.0000    2.5981    0.0000 C   0  0  0  0  0  0  0  0  0  0  0  0
   -7.5000    2.5981    0.0000 C   0  0  0  0  0  0  0  0  0  0  0  0
   -8.2500    3.8971    0.0000 N   0  0  0  0  0  0  0  0  0  0  0  0
   -7.5000    5.1962    0.0000 C   0  0  0  0  0  0  0  0  0  0  0  0
   -8.2500    6.4952    0.0000 C   0  0  0  0  0  0  0  0  0  0  0  0
   -9.7500    6.4952    0.0000 C   0  0  0  0  0  0  0  0  0  0  0  0
   -9.4895    7.9724    0.0000 O   0  0  0  0  0  0  0  0  0  0  0  0
  -11.1595    7.0082    0.0000 C   0  0  0  0  0  0  0  0  0  0  0  0
  -11.4200    8.4854    0.0000 C   0  0  0  0  0  0  0  0  0  0  0  0
  -12.8296    8.9985    0.0000 C   0  0  0  0  0  0  0  0  0  0  0  0
  -13.9786    8.0343    0.0000 C   0  0  0  0  0  0  0  0  0  0  0  0
  -15.3882    8.5473    0.0000 Cl  0  0  0  0  0  0  0  0  0  0  0  0
  -13.7181    6.5571    0.0000 C   0  0  0  0  0  0  0  0  0  0  0  0
  -14.8672    5.5929    0.0000 C   0  0  0  0  0  0  0  0  0  0  0  0
  -16.0163    4.6287    0.0000 F   0  0  0  0  0  0  0  0  0  0  0  0
  -13.9030    4.4438    0.0000 F   0  0  0  0  0  0  0  0  0  0  0  0
  -15.8314    6.7420    0.0000 F   0  0  0  0  0  0  0  0  0  0  0  0
  -12.3086    6.0440    0.0000 C   0  0  0  0  0  0  0  0  0  0  0  0
  -10.5000    5.1962    0.0000 C   0  0  0  0  0  0  0  0  0  0  0  0
   -9.7500    3.8971    0.0000 C   0  0  0  0  0  0  0  0  0  0  0  0
   -3.7500   -1.2990    0.0000 C   0  0  0  0  0  0  0  0  0  0  0  0
   -5.2500   -1.2990    0.0000 C   0  0  0  0  0  0  0  0  0  0  0  0
   -6.0000   -2.5981    0.0000 C   0  0  0  0  0  0  0  0  0  0  0  0
   -5.2500   -3.8971    0.0000 C   0  0  0  0  0  0  0  0  0  0  0  0
   -6.0000   -5.1962    0.0000 O   0  0  0  0  0  0  0  0  0  0  0  0
   -7.5000   -5.1962    0.0000 C   0  0  0  0  0  0  0  0  0  0  0  0
   -3.7500   -3.8971    0.0000 C   0  0  0  0  0  0  0  0  0  0  0  0
   -3.0000   -2.5981    0.0000 C   0  0  0  0  0  0  0  0  0  0  0  0
   -0.7500    1.2990    0.0000 C   0  0  0  0  0  0  0  0  0  0  0  0
    0.7500    1.2990    0.0000 C   0  0  0  0  0  0  0  0  0  0  0  0
  1  2  1  0
  2  3  1  0
  3  4  2  0
  4  5  1  0
  5  6  2  0
  6  7  1  0
  7  8  1  0
  8  9  1  0
  9 10  1  0
 10 11  1  0
 11 12  1  0
 12 13  1  0
 13 14  1  0
 14 15  1  0
 15 16  1  0
 15 17  1  0
 17 18  2  0
 18 19  1  0
 19 20  2  0
 20 21  1  0
 20 22  1  0
 22 23  1  0
 23 24  1  0
 23 25  1  0
 23 26  1  0
 22 27  2  0
 15 28  1  0
 28 29  1  0
  7 30  1  0
 30 31  2  0
 31 32  1  0
 32 33  2  0
 33 34  1  0
 34 35  1  0
 33 36  1  0
 36 37  2  0
  6 38  1  0
 38 39  2  0
 39  3  1  0
 29 12  1  0
 37 30  1  0
 27 17  1  0
M  END
>  <assay_chembl_id>  (642) 
CHEMBL4260800

>  <assay_description>  (642) 
Displacement of [3H]LSD from human 5-HT2B receptor expressed in HEK cells by radioligand binding assay

>  <parent_molecule_chembl_id>  (642) 
CHEMBL4293307

>  <canonical_smiles>  (642) 
COc1ccc(N(CCCCN2CCC(O)(c3ccc(Cl)c(C(F)(F)F)c3)CC2)c2ccc(OC)cc2)cc1

>  <standard_type>  (642) 
Ki

>  <standard_relation>  (642) 
=

>  <standard_value>  (642) 
729.0

>  <standard_units>  (642) 
nM

>  <target_pref_name>  (642) 
Serotonin 2b (5-HT2b) receptor

>  <target_chembl_id>  (642) 
CHEMBL1833

>  <target_organism>  (642) 
Homo sapiens

>  <pchembl_median>  (642) 
6.97

$$$$
CHEMBL47050
     RDKit          2D

 36 39  0  0  0  0  0  0  0  0999 V2000
    2.6491   -1.6339    0.0000 O   0  0  0  0  0  0  0  0  0  0  0  0
    1.5000   -2.5981    0.0000 C   0  0  0  0  0  0  0  0  0  0  0  0
    0.7500   -1.2990    0.0000 C   0  0  0  0  0  0  0  0  0  0  0  0
    1.5000    0.0000    0.0000 C   0  0  0  0  0  0  0  0  0  0  0  0
    0.7500    1.2990    0.0000 C   0  0  0  0  0  0  0  0  0  0  0  0
   -0.7500    1.2990    0.0000 C   0  0  0  0  0  0  0  0  0  0  0  0
   -1.5000    2.5981    0.0000 Cl  0  0  0  0  0  0  0  0  0  0  0  0
   -1.5000    0.0000    0.0000 C   0  0  0  0  0  0  0  0  0  0  0  0
   -3.0000    0.0000    0.0000 C   0  0  0  0  0  0  0  0  0  0  0  0
   -4.5000    0.0000    0.0000 F   0  0  0  0  0  0  0  0  0  0  0  0
   -3.0000    1.5000    0.0000 F   0  0  0  0  0  0  0  0  0  0  0  0
   -3.0000   -1.5000    0.0000 F   0  0  0  0  0  0  0  0  0  0  0  0
   -0.7500   -1.2990    0.0000 C   0  0  0  0  0  0  0  0  0  0  0  0
    0.0905   -3.1111    0.0000 C   0  0  0  0  0  0  0  0  0  0  0  0
   -0.1700   -4.5883    0.0000 C   0  0  0  0  0  0  0  0  0  0  0  0
    0.9791   -5.5525    0.0000 N   0  0  0  0  0  0  0  0  0  0  0  0
    0.7186   -7.0297    0.0000 C   0  0  0  0  0  0  0  0  0  0  0  0
   -0.6910   -7.5427    0.0000 C   0  0  0  0  0  0  0  0  0  0  0  0
   -0.9514   -9.0200    0.0000 C   0  0  0  0  0  0  0  0  0  0  0  0
   -2.3610   -9.5330    0.0000 C   0  0  0  0  0  0  0  0  0  0  0  0
   -2.6214  -11.0102    0.0000 C   0  0  0  0  0  0  0  0  0  0  0  0
   -4.0310  -11.5232    0.0000 C   0  0  0  0  0  0  0  0  0  0  0  0
   -4.2915  -13.0004    0.0000 C   0  0  0  0  0  0  0  0  0  0  0  0
   -3.1424  -13.9646    0.0000 C   0  0  0  0  0  0  0  0  0  0  0  0
   -3.4029  -15.4418    0.0000 F   0  0  0  0  0  0  0  0  0  0  0  0
   -1.7328  -13.4516    0.0000 C   0  0  0  0  0  0  0  0  0  0  0  0
   -1.4724  -11.9744    0.0000 C   0  0  0  0  0  0  0  0  0  0  0  0
   -3.5100   -8.5688    0.0000 C   0  0  0  0  0  0  0  0  0  0  0  0
   -3.2496   -7.0916    0.0000 C   0  0  0  0  0  0  0  0  0  0  0  0
   -4.3986   -6.1274    0.0000 C   0  0  0  0  0  0  0  0  0  0  0  0
   -5.8082   -6.6404    0.0000 C   0  0  0  0  0  0  0  0  0  0  0  0
   -6.9572   -5.6763    0.0000 F   0  0  0  0  0  0  0  0  0  0  0  0
   -6.0686   -8.1177    0.0000 C   0  0  0  0  0  0  0  0  0  0  0  0
   -4.9196   -9.0818    0.0000 C   0  0  0  0  0  0  0  0  0  0  0  0
    2.3886   -5.0395    0.0000 C   0  0  0  0  0  0  0  0  0  0  0  0
    2.6491   -3.5623    0.0000 C   0  0  0  0  0  0  0  0  0  0  0  0
  1  2  1  0
  2  3  1  0
  3  4  2  0
  4  5  1  0
  5  6  2  0
  6  7  1  0
  6  8  1  0
  8  9  1  0
  9 10  1  0
  9 11  1  0
  9 12  1  0
  8 13  2  0
  2 14  1  0
 14 15  1  0
 15 16  1  0
 16 17  1  0
 17 18  1  0
 18 19  1  0
 19 20  1  0
 20 21  1  0
 21 22  2  0
 22 23  1  0
 23 24  2  0
 24 25  1  0
 24 26  1  0
 26 27  2  0
 20 28  1  0
 28 29  2  0
 29 30  1  0
 30 31  2  0
 31 32  1  0
 31 33  1  0
 33 34  2  0
 16 35  1  0
 35 36  1  0
 36  2  1  0
 13  3  1  0
 27 21  1  0
 34 28  1  0
M  END
>  <assay_chembl_id>  (643) 
CHEMBL4260800

>  <assay_description>  (643) 
Displacement of [3H]LSD from human 5-HT2B receptor expressed in HEK cells by radioligand binding assay

>  <parent_molecule_chembl_id>  (643) 
CHEMBL47050

>  <canonical_smiles>  (643) 
OC1(c2ccc(Cl)c(C(F)(F)F)c2)CCN(CCCC(c2ccc(F)cc2)c2ccc(F)cc2)CC1

>  <standard_type>  (643) 
Ki

>  <standard_relation>  (643) 
=

>  <standard_value>  (643) 
184.0

>  <standard_units>  (643) 
nM

>  <target_pref_name>  (643) 
Serotonin 2b (5-HT2b) receptor

>  <target_chembl_id>  (643) 
CHEMBL1833

>  <target_organism>  (643) 
Homo sapiens

>  <pchembl_median>  (643) 
5.36

$$$$
CHEMBL4294350
     RDKit          2D

 37 41  0  0  0  0  0  0  0  0999 V2000
   18.5411    2.4146    0.0000 N   0  0  0  0  0  0  0  0  0  0  0  0
   17.0739    2.1028    0.0000 C   0  0  0  0  0  0  0  0  0  0  0  0
   16.0702    3.2175    0.0000 C   0  0  0  0  0  0  0  0  0  0  0  0
   14.6030    2.9056    0.0000 C   0  0  0  0  0  0  0  0  0  0  0  0
   13.5993    4.0203    0.0000 C   0  0  0  0  0  0  0  0  0  0  0  0
   12.1321    3.7085    0.0000 N   0  0  0  0  0  0  0  0  0  0  0  0
   11.1284    4.8232    0.0000 C   0  0  0  0  0  0  0  0  0  0  0  0
   11.5919    6.2498    0.0000 O   0  0  0  0  0  0  0  0  0  0  0  0
    9.6612    4.5113    0.0000 C   0  0  0  0  0  0  0  0  0  0  0  0
    8.6575    5.6260    0.0000 O   0  0  0  0  0  0  0  0  0  0  0  0
    7.1902    5.3142    0.0000 C   0  0  0  0  0  0  0  0  0  0  0  0
    6.7267    3.8876    0.0000 C   0  0  0  0  0  0  0  0  0  0  0  0
    5.2595    3.5757    0.0000 C   0  0  0  0  0  0  0  0  0  0  0  0
    4.2558    4.6904    0.0000 C   0  0  0  0  0  0  0  0  0  0  0  0
    2.7886    4.3786    0.0000 C   0  0  0  0  0  0  0  0  0  0  0  0
    2.3250    2.9520    0.0000 C   0  0  0  0  0  0  0  0  0  0  0  0
    0.8578    2.6401    0.0000 C   0  0  0  0  0  0  0  0  0  0  0  0
    0.3943    1.2135    0.0000 N   0  0  0  0  0  0  0  0  0  0  0  0
    1.2760    0.0000    0.0000 N   0  0  0  0  0  0  0  0  0  0  0  0
    0.3943   -1.2135    0.0000 C   0  0  0  0  0  0  0  0  0  0  0  0
   -1.0323   -0.7500    0.0000 C   0  0  0  0  0  0  0  0  0  0  0  0
   -1.0323    0.7500    0.0000 C   0  0  0  0  0  0  0  0  0  0  0  0
   -2.3313    1.5000    0.0000 N   0  0  0  0  0  0  0  0  0  0  0  0
   -3.6304    0.7500    0.0000 C   0  0  0  0  0  0  0  0  0  0  0  0
   -4.9294    1.5000    0.0000 N   0  0  0  0  0  0  0  0  0  0  0  0
   -3.6304   -0.7500    0.0000 N   0  0  0  0  0  0  0  0  0  0  0  0
   -4.7451   -1.7537    0.0000 N   0  0  0  0  0  0  0  0  0  0  0  0
   -4.1350   -3.1240    0.0000 C   0  0  0  0  0  0  0  0  0  0  0  0
   -4.8850   -4.4231    0.0000 C   0  0  0  0  0  0  0  0  0  0  0  0
   -4.2749   -5.7934    0.0000 C   0  0  0  0  0  0  0  0  0  0  0  0
   -5.3896   -6.7971    0.0000 C   0  0  0  0  0  0  0  0  0  0  0  0
   -6.6886   -6.0471    0.0000 C   0  0  0  0  0  0  0  0  0  0  0  0
   -6.3768   -4.5798    0.0000 O   0  0  0  0  0  0  0  0  0  0  0  0
   -2.6432   -2.9672    0.0000 N   0  0  0  0  0  0  0  0  0  0  0  0
   -2.3313   -1.5000    0.0000 C   0  0  0  0  0  0  0  0  0  0  0  0
    4.7193    6.1170    0.0000 C   0  0  0  0  0  0  0  0  0  0  0  0
    6.1865    6.4289    0.0000 C   0  0  0  0  0  0  0  0  0  0  0  0
  1  2  1  0
  2  3  1  0
  3  4  1  0
  4  5  1  0
  5  6  1  0
  6  7  1  0
  7  8  2  0
  7  9  1  0
  9 10  1  0
 10 11  1  0
 11 12  2  0
 12 13  1  0
 13 14  2  0
 14 15  1  0
 15 16  1  0
 16 17  1  0
 17 18  1  0
 18 19  1  0
 19 20  2  0
 20 21  1  0
 21 22  2  0
 22 23  1  0
 23 24  2  0
 24 25  1  0
 24 26  1  0
 26 27  1  0
 27 28  2  0
 28 29  1  0
 29 30  2  0
 30 31  1  0
 31 32  2  0
 32 33  1  0
 28 34  1  0
 34 35  2  0
 14 36  1  0
 36 37  2  0
 37 11  1  0
 22 18  1  0
 35 26  1  0
 35 21  1  0
 33 29  1  0
M  END
>  <assay_chembl_id>  (644) 
CHEMBL4262958

>  <assay_description>  (644) 
Displacement of [3H]-LSD from human 5-HT2B receptor expressed in HEKT cells after 90 mins by scintillation counting method

>  <parent_molecule_chembl_id>  (644) 
CHEMBL4294350

>  <canonical_smiles>  (644) 
NCCCCNC(=O)COc1ccc(CCCn2ncc3c2nc(N)n2nc(-c4ccco4)nc32)cc1

>  <standard_type>  (644) 
Ki

>  <standard_relation>  (644) 
=

>  <standard_value>  (644) 
3.36

>  <standard_units>  (644) 
nM

>  <target_pref_name>  (644) 
Serotonin 2b (5-HT2b) receptor

>  <target_chembl_id>  (644) 
CHEMBL1833

>  <target_organism>  (644) 
Homo sapiens

>  <pchembl_median>  (644) 
6.78

$$$$
CHEMBL3770837
     RDKit          2D

 19 21  0  0  0  0  0  0  0  0999 V2000
   -0.0000   -5.1962    0.0000 N   0  0  0  0  0  0  0  0  0  0  0  0
    0.7500   -3.8971    0.0000 C   0  0  0  0  0  0  0  0  0  0  0  0
   -0.0000   -2.5981    0.0000 N   0  0  0  0  0  0  0  0  0  0  0  0
    0.7500   -1.2990    0.0000 C   0  0  0  0  0  0  0  0  0  0  0  0
    1.5000    0.0000    0.0000 C   0  0  0  0  0  0  0  0  0  0  0  0
    0.7500    1.2990    0.0000 C   0  0  0  0  0  0  0  0  0  0  0  0
   -0.7500    1.2990    0.0000 C   0  0  0  0  0  0  0  0  0  0  0  0
   -1.5000    0.0000    0.0000 C   0  0  0  0  0  0  0  0  0  0  0  0
   -0.7500   -1.2990    0.0000 C   0  0  0  0  0  0  0  0  0  0  0  0
    2.2500   -1.2990    0.0000 N   0  0  0  0  0  0  0  0  0  0  0  0
    3.0000   -2.5981    0.0000 C   0  0  0  0  0  0  0  0  0  0  0  0
    4.5000   -2.5981    0.0000 N   0  0  0  0  0  0  0  0  0  0  0  0
    5.2500   -3.8971    0.0000 C   0  0  0  0  0  0  0  0  0  0  0  0
    4.5000   -5.1962    0.0000 C   0  0  0  0  0  0  0  0  0  0  0  0
    5.2500   -6.4952    0.0000 C   0  0  0  0  0  0  0  0  0  0  0  0
    6.7500   -6.4952    0.0000 C   0  0  0  0  0  0  0  0  0  0  0  0
    7.5000   -5.1962    0.0000 C   0  0  0  0  0  0  0  0  0  0  0  0
    6.7500   -3.8971    0.0000 C   0  0  0  0  0  0  0  0  0  0  0  0
    2.2500   -3.8971    0.0000 N   0  0  0  0  0  0  0  0  0  0  0  0
  1  2  1  0
  2  3  2  0
  3  4  1  0
  4  5  1  0
  5  6  1  0
  6  7  1  0
  7  8  1  0
  8  9  1  0
  4 10  1  0
 10 11  1  0
 11 12  1  0
 12 13  1  0
 13 14  2  0
 14 15  1  0
 15 16  2  0
 16 17  1  0
 17 18  2  0
 11 19  2  0
 19  2  1  0
  9  4  1  0
 18 13  1  0
M  END
>  <assay_chembl_id>  (645) 
CHEMBL4269542

>  <assay_description>  (645) 
Displacement of [3H]LSD from 5HT2B (unknown origin) after 1.5 hrs by microbeta scintillation counting method

>  <parent_molecule_chembl_id>  (645) 
CHEMBL3770837

>  <canonical_smiles>  (645) 
NC1=NC2(CCCCC2)NC(Nc2ccccc2)=N1

>  <standard_type>  (645) 
Ki

>  <standard_relation>  (645) 
=

>  <standard_value>  (645) 
151.3

>  <standard_units>  (645) 
nM

>  <target_pref_name>  (645) 
Serotonin 2b (5-HT2b) receptor

>  <target_chembl_id>  (645) 
CHEMBL1833

>  <target_organism>  (645) 
Homo sapiens

>  <pchembl_median>  (645) 
5.57

$$$$
CHEMBL4286420
     RDKit          2D

 20 22  0  0  0  0  0  0  0  0999 V2000
   -0.0000   -5.1962    0.0000 N   0  0  0  0  0  0  0  0  0  0  0  0
    0.7500   -3.8971    0.0000 C   0  0  0  0  0  0  0  0  0  0  0  0
   -0.0000   -2.5981    0.0000 N   0  0  0  0  0  0  0  0  0  0  0  0
    0.7500   -1.2990    0.0000 C   0  0  0  0  0  0  0  0  0  0  0  0
    1.5000    0.0000    0.0000 C   0  0  0  0  0  0  0  0  0  0  0  0
    0.7500    1.2990    0.0000 C   0  0  0  0  0  0  0  0  0  0  0  0
   -0.7500    1.2990    0.0000 C   0  0  0  0  0  0  0  0  0  0  0  0
   -1.5000    0.0000    0.0000 C   0  0  0  0  0  0  0  0  0  0  0  0
   -0.7500   -1.2990    0.0000 C   0  0  0  0  0  0  0  0  0  0  0  0
    2.2500   -1.2990    0.0000 N   0  0  0  0  0  0  0  0  0  0  0  0
    3.0000   -2.5981    0.0000 C   0  0  0  0  0  0  0  0  0  0  0  0
    4.5000   -2.5981    0.0000 N   0  0  0  0  0  0  0  0  0  0  0  0
    5.2500   -3.8971    0.0000 C   0  0  0  0  0  0  0  0  0  0  0  0
    4.5000   -5.1962    0.0000 C   0  0  0  0  0  0  0  0  0  0  0  0
    5.2500   -6.4952    0.0000 C   0  0  0  0  0  0  0  0  0  0  0  0
    6.7500   -6.4952    0.0000 C   0  0  0  0  0  0  0  0  0  0  0  0
    7.5000   -5.1962    0.0000 C   0  0  0  0  0  0  0  0  0  0  0  0
    9.0000   -5.1962    0.0000 F   0  0  0  0  0  0  0  0  0  0  0  0
    6.7500   -3.8971    0.0000 C   0  0  0  0  0  0  0  0  0  0  0  0
    2.2500   -3.8971    0.0000 N   0  0  0  0  0  0  0  0  0  0  0  0
  1  2  1  0
  2  3  2  0
  3  4  1  0
  4  5  1  0
  5  6  1  0
  6  7  1  0
  7  8  1  0
  8  9  1  0
  4 10  1  0
 10 11  1  0
 11 12  1  0
 12 13  1  0
 13 14  2  0
 14 15  1  0
 15 16  2  0
 16 17  1  0
 17 18  1  0
 17 19  2  0
 11 20  2  0
 20  2  1  0
  9  4  1  0
 19 13  1  0
M  END
>  <assay_chembl_id>  (646) 
CHEMBL4269542

>  <assay_description>  (646) 
Displacement of [3H]LSD from 5HT2B (unknown origin) after 1.5 hrs by microbeta scintillation counting method

>  <parent_molecule_chembl_id>  (646) 
CHEMBL4286420

>  <canonical_smiles>  (646) 
NC1=NC2(CCCCC2)NC(Nc2cccc(F)c2)=N1

>  <standard_type>  (646) 
Ki

>  <standard_relation>  (646) 
=

>  <standard_value>  (646) 
53.3

>  <standard_units>  (646) 
nM

>  <target_pref_name>  (646) 
Serotonin 2b (5-HT2b) receptor

>  <target_chembl_id>  (646) 
CHEMBL1833

>  <target_organism>  (646) 
Homo sapiens

>  <pchembl_median>  (646) 
7.86

$$$$
CHEMBL4293638
     RDKit          2D

 20 22  0  0  0  0  0  0  0  0999 V2000
   -0.0000   -5.1962    0.0000 N   0  0  0  0  0  0  0  0  0  0  0  0
    0.7500   -3.8971    0.0000 C   0  0  0  0  0  0  0  0  0  0  0  0
   -0.0000   -2.5981    0.0000 N   0  0  0  0  0  0  0  0  0  0  0  0
    0.7500   -1.2990    0.0000 C   0  0  0  0  0  0  0  0  0  0  0  0
    1.5000    0.0000    0.0000 C   0  0  0  0  0  0  0  0  0  0  0  0
    0.7500    1.2990    0.0000 C   0  0  0  0  0  0  0  0  0  0  0  0
   -0.7500    1.2990    0.0000 C   0  0  0  0  0  0  0  0  0  0  0  0
   -1.5000    0.0000    0.0000 C   0  0  0  0  0  0  0  0  0  0  0  0
   -0.7500   -1.2990    0.0000 C   0  0  0  0  0  0  0  0  0  0  0  0
    2.2500   -1.2990    0.0000 N   0  0  0  0  0  0  0  0  0  0  0  0
    3.0000   -2.5981    0.0000 C   0  0  0  0  0  0  0  0  0  0  0  0
    4.5000   -2.5981    0.0000 N   0  0  0  0  0  0  0  0  0  0  0  0
    5.2500   -3.8971    0.0000 C   0  0  0  0  0  0  0  0  0  0  0  0
    4.5000   -5.1962    0.0000 C   0  0  0  0  0  0  0  0  0  0  0  0
    5.2500   -6.4952    0.0000 C   0  0  0  0  0  0  0  0  0  0  0  0
    6.7500   -6.4952    0.0000 C   0  0  0  0  0  0  0  0  0  0  0  0
    7.5000   -5.1962    0.0000 C   0  0  0  0  0  0  0  0  0  0  0  0
    9.0000   -5.1962    0.0000 Cl  0  0  0  0  0  0  0  0  0  0  0  0
    6.7500   -3.8971    0.0000 C   0  0  0  0  0  0  0  0  0  0  0  0
    2.2500   -3.8971    0.0000 N   0  0  0  0  0  0  0  0  0  0  0  0
  1  2  1  0
  2  3  2  0
  3  4  1  0
  4  5  1  0
  5  6  1  0
  6  7  1  0
  7  8  1  0
  8  9  1  0
  4 10  1  0
 10 11  1  0
 11 12  1  0
 12 13  1  0
 13 14  2  0
 14 15  1  0
 15 16  2  0
 16 17  1  0
 17 18  1  0
 17 19  2  0
 11 20  2  0
 20  2  1  0
  9  4  1  0
 19 13  1  0
M  END
>  <assay_chembl_id>  (647) 
CHEMBL4269542

>  <assay_description>  (647) 
Displacement of [3H]LSD from 5HT2B (unknown origin) after 1.5 hrs by microbeta scintillation counting method

>  <parent_molecule_chembl_id>  (647) 
CHEMBL4293638

>  <canonical_smiles>  (647) 
NC1=NC2(CCCCC2)NC(Nc2cccc(Cl)c2)=N1

>  <standard_type>  (647) 
Ki

>  <standard_relation>  (647) 
=

>  <standard_value>  (647) 
6.3

>  <standard_units>  (647) 
nM

>  <target_pref_name>  (647) 
Serotonin 2b (5-HT2b) receptor

>  <target_chembl_id>  (647) 
CHEMBL1833

>  <target_organism>  (647) 
Homo sapiens

>  <pchembl_median>  (647) 
5.43

$$$$
CHEMBL4290245
     RDKit          2D

 20 22  0  0  0  0  0  0  0  0999 V2000
   -0.0000   -5.1962    0.0000 N   0  0  0  0  0  0  0  0  0  0  0  0
    0.7500   -3.8971    0.0000 C   0  0  0  0  0  0  0  0  0  0  0  0
   -0.0000   -2.5981    0.0000 N   0  0  0  0  0  0  0  0  0  0  0  0
    0.7500   -1.2990    0.0000 C   0  0  0  0  0  0  0  0  0  0  0  0
    1.5000    0.0000    0.0000 C   0  0  0  0  0  0  0  0  0  0  0  0
    0.7500    1.2990    0.0000 C   0  0  0  0  0  0  0  0  0  0  0  0
   -0.7500    1.2990    0.0000 C   0  0  0  0  0  0  0  0  0  0  0  0
   -1.5000    0.0000    0.0000 C   0  0  0  0  0  0  0  0  0  0  0  0
   -0.7500   -1.2990    0.0000 C   0  0  0  0  0  0  0  0  0  0  0  0
    2.2500   -1.2990    0.0000 N   0  0  0  0  0  0  0  0  0  0  0  0
    3.0000   -2.5981    0.0000 C   0  0  0  0  0  0  0  0  0  0  0  0
    4.5000   -2.5981    0.0000 N   0  0  0  0  0  0  0  0  0  0  0  0
    5.2500   -3.8971    0.0000 C   0  0  0  0  0  0  0  0  0  0  0  0
    4.5000   -5.1962    0.0000 C   0  0  0  0  0  0  0  0  0  0  0  0
    5.2500   -6.4952    0.0000 C   0  0  0  0  0  0  0  0  0  0  0  0
    6.7500   -6.4952    0.0000 C   0  0  0  0  0  0  0  0  0  0  0  0
    7.5000   -5.1962    0.0000 C   0  0  0  0  0  0  0  0  0  0  0  0
    9.0000   -5.1962    0.0000 I   0  0  0  0  0  0  0  0  0  0  0  0
    6.7500   -3.8971    0.0000 C   0  0  0  0  0  0  0  0  0  0  0  0
    2.2500   -3.8971    0.0000 N   0  0  0  0  0  0  0  0  0  0  0  0
  1  2  1  0
  2  3  2  0
  3  4  1  0
  4  5  1  0
  5  6  1  0
  6  7  1  0
  7  8  1  0
  8  9  1  0
  4 10  1  0
 10 11  1  0
 11 12  1  0
 12 13  1  0
 13 14  2  0
 14 15  1  0
 15 16  2  0
 16 17  1  0
 17 18  1  0
 17 19  2  0
 11 20  2  0
 20  2  1  0
  9  4  1  0
 19 13  1  0
M  END
>  <assay_chembl_id>  (648) 
CHEMBL4269542

>  <assay_description>  (648) 
Displacement of [3H]LSD from 5HT2B (unknown origin) after 1.5 hrs by microbeta scintillation counting method

>  <parent_molecule_chembl_id>  (648) 
CHEMBL4290245

>  <canonical_smiles>  (648) 
NC1=NC2(CCCCC2)NC(Nc2cccc(I)c2)=N1

>  <standard_type>  (648) 
Ki

>  <standard_relation>  (648) 
=

>  <standard_value>  (648) 
1.7

>  <standard_units>  (648) 
nM

>  <target_pref_name>  (648) 
Serotonin 2b (5-HT2b) receptor

>  <target_chembl_id>  (648) 
CHEMBL1833

>  <target_organism>  (648) 
Homo sapiens

>  <pchembl_median>  (648) 
7.34

$$$$
CHEMBL1373650
     RDKit          2D

 20 22  0  0  0  0  0  0  0  0999 V2000
   -4.5000   -7.7942    0.0000 C   0  0  0  0  0  0  0  0  0  0  0  0
   -3.7500   -6.4952    0.0000 C   0  0  0  0  0  0  0  0  0  0  0  0
   -4.5000   -5.1962    0.0000 C   0  0  0  0  0  0  0  0  0  0  0  0
   -3.7500   -3.8971    0.0000 C   0  0  0  0  0  0  0  0  0  0  0  0
   -2.2500   -3.8971    0.0000 C   0  0  0  0  0  0  0  0  0  0  0  0
   -1.5000   -5.1962    0.0000 C   0  0  0  0  0  0  0  0  0  0  0  0
   -0.0000   -5.1962    0.0000 N   0  0  0  0  0  0  0  0  0  0  0  0
    0.7500   -3.8971    0.0000 C   0  0  0  0  0  0  0  0  0  0  0  0
    2.2500   -3.8971    0.0000 N   0  0  0  0  0  0  0  0  0  0  0  0
    3.0000   -2.5981    0.0000 C   0  0  0  0  0  0  0  0  0  0  0  0
    4.5000   -2.5981    0.0000 N   0  0  0  0  0  0  0  0  0  0  0  0
    2.2500   -1.2990    0.0000 N   0  0  0  0  0  0  0  0  0  0  0  0
    0.7500   -1.2990    0.0000 C   0  0  0  0  0  0  0  0  0  0  0  0
    1.5000    0.0000    0.0000 C   0  0  0  0  0  0  0  0  0  0  0  0
    0.7500    1.2990    0.0000 C   0  0  0  0  0  0  0  0  0  0  0  0
   -0.7500    1.2990    0.0000 C   0  0  0  0  0  0  0  0  0  0  0  0
   -1.5000    0.0000    0.0000 C   0  0  0  0  0  0  0  0  0  0  0  0
   -0.7500   -1.2990    0.0000 C   0  0  0  0  0  0  0  0  0  0  0  0
   -0.0000   -2.5981    0.0000 N   0  0  0  0  0  0  0  0  0  0  0  0
   -2.2500   -6.4952    0.0000 C   0  0  0  0  0  0  0  0  0  0  0  0
  1  2  1  0
  2  3  2  0
  3  4  1  0
  4  5  2  0
  5  6  1  0
  6  7  1  0
  7  8  1  0
  8  9  2  0
  9 10  1  0
 10 11  1  0
 10 12  2  0
 12 13  1  0
 13 14  1  0
 14 15  1  0
 15 16  1  0
 16 17  1  0
 17 18  1  0
 13 19  1  0
  6 20  2  0
 20  2  1  0
 19  8  1  0
 18 13  1  0
M  END
>  <assay_chembl_id>  (649) 
CHEMBL4269542

>  <assay_description>  (649) 
Displacement of [3H]LSD from 5HT2B (unknown origin) after 1.5 hrs by microbeta scintillation counting method

>  <parent_molecule_chembl_id>  (649) 
CHEMBL1373650

>  <canonical_smiles>  (649) 
Cc1cccc(NC2=NC(N)=NC3(CCCCC3)N2)c1

>  <standard_type>  (649) 
Ki

>  <standard_relation>  (649) 
=

>  <standard_value>  (649) 
19.8

>  <standard_units>  (649) 
nM

>  <target_pref_name>  (649) 
Serotonin 2b (5-HT2b) receptor

>  <target_chembl_id>  (649) 
CHEMBL1833

>  <target_organism>  (649) 
Homo sapiens

>  <pchembl_median>  (649) 
7.75

$$$$
CHEMBL4286819
     RDKit          2D

 20 22  0  0  0  0  0  0  0  0999 V2000
   -0.0000   -5.1962    0.0000 N   0  0  0  0  0  0  0  0  0  0  0  0
    0.7500   -3.8971    0.0000 C   0  0  0  0  0  0  0  0  0  0  0  0
   -0.0000   -2.5981    0.0000 N   0  0  0  0  0  0  0  0  0  0  0  0
    0.7500   -1.2990    0.0000 C   0  0  0  0  0  0  0  0  0  0  0  0
    1.5000    0.0000    0.0000 C   0  0  0  0  0  0  0  0  0  0  0  0
    0.7500    1.2990    0.0000 C   0  0  0  0  0  0  0  0  0  0  0  0
   -0.7500    1.2990    0.0000 C   0  0  0  0  0  0  0  0  0  0  0  0
   -1.5000    0.0000    0.0000 C   0  0  0  0  0  0  0  0  0  0  0  0
   -0.7500   -1.2990    0.0000 C   0  0  0  0  0  0  0  0  0  0  0  0
    2.2500   -1.2990    0.0000 N   0  0  0  0  0  0  0  0  0  0  0  0
    3.0000   -2.5981    0.0000 C   0  0  0  0  0  0  0  0  0  0  0  0
    4.5000   -2.5981    0.0000 N   0  0  0  0  0  0  0  0  0  0  0  0
    5.2500   -3.8971    0.0000 C   0  0  0  0  0  0  0  0  0  0  0  0
    4.5000   -5.1962    0.0000 C   0  0  0  0  0  0  0  0  0  0  0  0
    5.2500   -6.4952    0.0000 C   0  0  0  0  0  0  0  0  0  0  0  0
    6.7500   -6.4952    0.0000 C   0  0  0  0  0  0  0  0  0  0  0  0
    7.5000   -5.1962    0.0000 C   0  0  0  0  0  0  0  0  0  0  0  0
    9.0000   -5.1962    0.0000 O   0  0  0  0  0  0  0  0  0  0  0  0
    6.7500   -3.8971    0.0000 C   0  0  0  0  0  0  0  0  0  0  0  0
    2.2500   -3.8971    0.0000 N   0  0  0  0  0  0  0  0  0  0  0  0
  1  2  1  0
  2  3  2  0
  3  4  1  0
  4  5  1  0
  5  6  1  0
  6  7  1  0
  7  8  1  0
  8  9  1  0
  4 10  1  0
 10 11  1  0
 11 12  1  0
 12 13  1  0
 13 14  2  0
 14 15  1  0
 15 16  2  0
 16 17  1  0
 17 18  1  0
 17 19  2  0
 11 20  2  0
 20  2  1  0
  9  4  1  0
 19 13  1  0
M  END
>  <assay_chembl_id>  (650) 
CHEMBL4269542

>  <assay_description>  (650) 
Displacement of [3H]LSD from 5HT2B (unknown origin) after 1.5 hrs by microbeta scintillation counting method

>  <parent_molecule_chembl_id>  (650) 
CHEMBL4286819

>  <canonical_smiles>  (650) 
NC1=NC2(CCCCC2)NC(Nc2cccc(O)c2)=N1

>  <standard_type>  (650) 
Ki

>  <standard_relation>  (650) 
=

>  <standard_value>  (650) 
313.5

>  <standard_units>  (650) 
nM

>  <target_pref_name>  (650) 
Serotonin 2b (5-HT2b) receptor

>  <target_chembl_id>  (650) 
CHEMBL1833

>  <target_organism>  (650) 
Homo sapiens

>  <pchembl_median>  (650) 
6.36

$$$$
CHEMBL4290607
     RDKit          2D

 22 24  0  0  0  0  0  0  0  0999 V2000
   -8.1129   -3.6696    0.0000 C   0  0  0  0  0  0  0  0  0  0  0  0
   -6.6505   -4.0034    0.0000 N   0  0  0  0  0  0  0  0  0  0  0  0
   -6.2084   -5.4367    0.0000 C   0  0  0  0  0  0  0  0  0  0  0  0
   -5.6303   -2.9038    0.0000 C   0  0  0  0  0  0  0  0  0  0  0  0
   -4.1679   -3.2376    0.0000 C   0  0  0  0  0  0  0  0  0  0  0  0
   -3.1476   -2.1380    0.0000 C   0  0  0  0  0  0  0  0  0  0  0  0
   -1.6852   -2.4718    0.0000 C   0  0  0  0  0  0  0  0  0  0  0  0
   -1.3515   -3.9342    0.0000 C   0  0  0  0  0  0  0  0  0  0  0  0
   -2.5908   -4.7792    0.0000 C   0  0  0  0  0  0  0  0  0  0  0  0
   -2.4787   -6.2750    0.0000 C   0  0  0  0  0  0  0  0  0  0  0  0
   -1.1273   -6.9258    0.0000 C   0  0  0  0  0  0  0  0  0  0  0  0
   -1.0152   -8.4216    0.0000 F   0  0  0  0  0  0  0  0  0  0  0  0
    0.1121   -6.0808    0.0000 C   0  0  0  0  0  0  0  0  0  0  0  0
   -0.0000   -4.5850    0.0000 C   0  0  0  0  0  0  0  0  0  0  0  0
    1.3515   -3.9342    0.0000 C   0  0  0  0  0  0  0  0  0  0  0  0
    1.6852   -2.4718    0.0000 O   0  0  0  0  0  0  0  0  0  0  0  0
    0.7500   -1.2990    0.0000 C   0  0  0  0  0  0  0  0  0  0  0  0
    1.5000    0.0000    0.0000 C   0  0  0  0  0  0  0  0  0  0  0  0
    0.7500    1.2990    0.0000 C   0  0  0  0  0  0  0  0  0  0  0  0
   -0.7500    1.2990    0.0000 C   0  0  0  0  0  0  0  0  0  0  0  0
   -1.5000    0.0000    0.0000 C   0  0  0  0  0  0  0  0  0  0  0  0
   -0.7500   -1.2990    0.0000 C   0  0  0  0  0  0  0  0  0  0  0  0
  1  2  1  0
  2  3  1  0
  2  4  1  0
  4  5  1  0
  5  6  1  0
  6  7  2  0
  7  8  1  0
  8  9  2  0
  9 10  1  0
 10 11  2  0
 11 12  1  0
 11 13  1  0
 13 14  2  0
 14 15  1  0
 15 16  1  0
 16 17  1  0
 17 18  2  0
 18 19  1  0
 19 20  2  0
 20 21  1  0
 21 22  2  0
 22  7  1  0
 14  8  1  0
 22 17  1  0
M  END
>  <assay_chembl_id>  (651) 
CHEMBL4269542

>  <assay_description>  (651) 
Displacement of [3H]LSD from 5HT2B (unknown origin) after 1.5 hrs by microbeta scintillation counting method

>  <parent_molecule_chembl_id>  (651) 
CHEMBL4290607

>  <canonical_smiles>  (651) 
CN(C)CC/C=C1\c2ccc(F)cc2COc2ccccc21

>  <standard_type>  (651) 
Ki

>  <standard_relation>  (651) 
=

>  <standard_value>  (651) 
16.6

>  <standard_units>  (651) 
nM

>  <target_pref_name>  (651) 
Serotonin 2b (5-HT2b) receptor

>  <target_chembl_id>  (651) 
CHEMBL1833

>  <target_organism>  (651) 
Homo sapiens

>  <pchembl_median>  (651) 
6.9

$$$$
CHEMBL4282729
     RDKit          2D

 22 24  0  0  0  0  0  0  0  0999 V2000
   -8.1129   -3.6696    0.0000 C   0  0  0  0  0  0  0  0  0  0  0  0
   -6.6505   -4.0034    0.0000 N   0  0  0  0  0  0  0  0  0  0  0  0
   -6.2084   -5.4367    0.0000 C   0  0  0  0  0  0  0  0  0  0  0  0
   -5.6303   -2.9038    0.0000 C   0  0  0  0  0  0  0  0  0  0  0  0
   -4.1679   -3.2376    0.0000 C   0  0  0  0  0  0  0  0  0  0  0  0
   -3.1476   -2.1380    0.0000 C   0  0  0  0  0  0  0  0  0  0  0  0
   -1.6852   -2.4718    0.0000 C   0  0  0  0  0  0  0  0  0  0  0  0
   -1.3515   -3.9342    0.0000 C   0  0  0  0  0  0  0  0  0  0  0  0
   -2.5908   -4.7792    0.0000 C   0  0  0  0  0  0  0  0  0  0  0  0
   -2.4787   -6.2750    0.0000 C   0  0  0  0  0  0  0  0  0  0  0  0
   -1.1273   -6.9258    0.0000 C   0  0  0  0  0  0  0  0  0  0  0  0
   -1.0152   -8.4216    0.0000 Cl  0  0  0  0  0  0  0  0  0  0  0  0
    0.1121   -6.0808    0.0000 C   0  0  0  0  0  0  0  0  0  0  0  0
   -0.0000   -4.5850    0.0000 C   0  0  0  0  0  0  0  0  0  0  0  0
    1.3515   -3.9342    0.0000 C   0  0  0  0  0  0  0  0  0  0  0  0
    1.6852   -2.4718    0.0000 O   0  0  0  0  0  0  0  0  0  0  0  0
    0.7500   -1.2990    0.0000 C   0  0  0  0  0  0  0  0  0  0  0  0
    1.5000    0.0000    0.0000 C   0  0  0  0  0  0  0  0  0  0  0  0
    0.7500    1.2990    0.0000 C   0  0  0  0  0  0  0  0  0  0  0  0
   -0.7500    1.2990    0.0000 C   0  0  0  0  0  0  0  0  0  0  0  0
   -1.5000    0.0000    0.0000 C   0  0  0  0  0  0  0  0  0  0  0  0
   -0.7500   -1.2990    0.0000 C   0  0  0  0  0  0  0  0  0  0  0  0
  1  2  1  0
  2  3  1  0
  2  4  1  0
  4  5  1  0
  5  6  1  0
  6  7  2  0
  7  8  1  0
  8  9  2  0
  9 10  1  0
 10 11  2  0
 11 12  1  0
 11 13  1  0
 13 14  2  0
 14 15  1  0
 15 16  1  0
 16 17  1  0
 17 18  2  0
 18 19  1  0
 19 20  2  0
 20 21  1  0
 21 22  2  0
 22  7  1  0
 14  8  1  0
 22 17  1  0
M  END
>  <assay_chembl_id>  (652) 
CHEMBL4269542

>  <assay_description>  (652) 
Displacement of [3H]LSD from 5HT2B (unknown origin) after 1.5 hrs by microbeta scintillation counting method

>  <parent_molecule_chembl_id>  (652) 
CHEMBL4282729

>  <canonical_smiles>  (652) 
CN(C)CC/C=C1\c2ccc(Cl)cc2COc2ccccc21

>  <standard_type>  (652) 
Ki

>  <standard_relation>  (652) 
=

>  <standard_value>  (652) 
3.0

>  <standard_units>  (652) 
nM

>  <target_pref_name>  (652) 
Serotonin 2b (5-HT2b) receptor

>  <target_chembl_id>  (652) 
CHEMBL1833

>  <target_organism>  (652) 
Homo sapiens

>  <pchembl_median>  (652) 
6.26

$$$$
CHEMBL4287193
     RDKit          2D

 22 24  0  0  0  0  0  0  0  0999 V2000
   -8.1129   -3.6696    0.0000 C   0  0  0  0  0  0  0  0  0  0  0  0
   -6.6505   -4.0034    0.0000 N   0  0  0  0  0  0  0  0  0  0  0  0
   -6.2084   -5.4367    0.0000 C   0  0  0  0  0  0  0  0  0  0  0  0
   -5.6303   -2.9038    0.0000 C   0  0  0  0  0  0  0  0  0  0  0  0
   -4.1679   -3.2376    0.0000 C   0  0  0  0  0  0  0  0  0  0  0  0
   -3.1476   -2.1380    0.0000 C   0  0  0  0  0  0  0  0  0  0  0  0
   -1.6852   -2.4718    0.0000 C   0  0  0  0  0  0  0  0  0  0  0  0
   -1.3515   -3.9342    0.0000 C   0  0  0  0  0  0  0  0  0  0  0  0
   -2.5908   -4.7792    0.0000 C   0  0  0  0  0  0  0  0  0  0  0  0
   -2.4787   -6.2750    0.0000 C   0  0  0  0  0  0  0  0  0  0  0  0
   -1.1273   -6.9258    0.0000 C   0  0  0  0  0  0  0  0  0  0  0  0
   -1.0152   -8.4216    0.0000 Br  0  0  0  0  0  0  0  0  0  0  0  0
    0.1121   -6.0808    0.0000 C   0  0  0  0  0  0  0  0  0  0  0  0
   -0.0000   -4.5850    0.0000 C   0  0  0  0  0  0  0  0  0  0  0  0
    1.3515   -3.9342    0.0000 C   0  0  0  0  0  0  0  0  0  0  0  0
    1.6852   -2.4718    0.0000 O   0  0  0  0  0  0  0  0  0  0  0  0
    0.7500   -1.2990    0.0000 C   0  0  0  0  0  0  0  0  0  0  0  0
    1.5000    0.0000    0.0000 C   0  0  0  0  0  0  0  0  0  0  0  0
    0.7500    1.2990    0.0000 C   0  0  0  0  0  0  0  0  0  0  0  0
   -0.7500    1.2990    0.0000 C   0  0  0  0  0  0  0  0  0  0  0  0
   -1.5000    0.0000    0.0000 C   0  0  0  0  0  0  0  0  0  0  0  0
   -0.7500   -1.2990    0.0000 C   0  0  0  0  0  0  0  0  0  0  0  0
  1  2  1  0
  2  3  1  0
  2  4  1  0
  4  5  1  0
  5  6  1  0
  6  7  2  0
  7  8  1  0
  8  9  2  0
  9 10  1  0
 10 11  2  0
 11 12  1  0
 11 13  1  0
 13 14  2  0
 14 15  1  0
 15 16  1  0
 16 17  1  0
 17 18  2  0
 18 19  1  0
 19 20  2  0
 20 21  1  0
 21 22  2  0
 22  7  1  0
 14  8  1  0
 22 17  1  0
M  END
>  <assay_chembl_id>  (653) 
CHEMBL4269542

>  <assay_description>  (653) 
Displacement of [3H]LSD from 5HT2B (unknown origin) after 1.5 hrs by microbeta scintillation counting method

>  <parent_molecule_chembl_id>  (653) 
CHEMBL4287193

>  <canonical_smiles>  (653) 
CN(C)CC/C=C1\c2ccc(Br)cc2COc2ccccc21

>  <standard_type>  (653) 
Ki

>  <standard_relation>  (653) 
=

>  <standard_value>  (653) 
2.5

>  <standard_units>  (653) 
nM

>  <target_pref_name>  (653) 
Serotonin 2b (5-HT2b) receptor

>  <target_chembl_id>  (653) 
CHEMBL1833

>  <target_organism>  (653) 
Homo sapiens

>  <pchembl_median>  (653) 
7.55

$$$$
CHEMBL860
     RDKit          2D

 21 23  0  0  0  0  0  0  0  0999 V2000
    6.9567    1.3963    0.0000 C   0  0  0  0  0  0  0  0  0  0  0  0
    5.4943    1.0625    0.0000 N   0  0  0  0  0  0  0  0  0  0  0  0
    4.4740    2.1621    0.0000 C   0  0  0  0  0  0  0  0  0  0  0  0
    5.0522   -0.3709    0.0000 C   0  0  0  0  0  0  0  0  0  0  0  0
    3.5898   -0.7046    0.0000 C   0  0  0  0  0  0  0  0  0  0  0  0
    3.1476   -2.1380    0.0000 C   0  0  0  0  0  0  0  0  0  0  0  0
    1.6852   -2.4718    0.0000 C   0  0  0  0  0  0  0  0  0  0  0  0
    0.7500   -1.2990    0.0000 C   0  0  0  0  0  0  0  0  0  0  0  0
    1.5000    0.0000    0.0000 C   0  0  0  0  0  0  0  0  0  0  0  0
    0.7500    1.2990    0.0000 C   0  0  0  0  0  0  0  0  0  0  0  0
   -0.7500    1.2990    0.0000 C   0  0  0  0  0  0  0  0  0  0  0  0
   -1.5000    0.0000    0.0000 C   0  0  0  0  0  0  0  0  0  0  0  0
   -0.7500   -1.2990    0.0000 C   0  0  0  0  0  0  0  0  0  0  0  0
   -1.6852   -2.4718    0.0000 C   0  0  0  0  0  0  0  0  0  0  0  0
   -1.3515   -3.9342    0.0000 O   0  0  0  0  0  0  0  0  0  0  0  0
   -0.0000   -4.5850    0.0000 C   0  0  0  0  0  0  0  0  0  0  0  0
   -0.1121   -6.0808    0.0000 C   0  0  0  0  0  0  0  0  0  0  0  0
    1.1273   -6.9258    0.0000 C   0  0  0  0  0  0  0  0  0  0  0  0
    2.4787   -6.2750    0.0000 C   0  0  0  0  0  0  0  0  0  0  0  0
    2.5908   -4.7792    0.0000 C   0  0  0  0  0  0  0  0  0  0  0  0
    1.3515   -3.9342    0.0000 C   0  0  0  0  0  0  0  0  0  0  0  0
  1  2  1  0
  2  3  1  0
  2  4  1  0
  4  5  1  0
  5  6  1  0
  6  7  2  0
  7  8  1  0
  8  9  2  0
  9 10  1  0
 10 11  2  0
 11 12  1  0
 12 13  2  0
 13 14  1  0
 14 15  1  0
 15 16  1  0
 16 17  2  0
 17 18  1  0
 18 19  2  0
 19 20  1  0
 20 21  2  0
 21  7  1  0
 13  8  1  0
 21 16  1  0
M  END
>  <assay_chembl_id>  (654) 
CHEMBL4269542

>  <assay_description>  (654) 
Displacement of [3H]LSD from 5HT2B (unknown origin) after 1.5 hrs by microbeta scintillation counting method

>  <parent_molecule_chembl_id>  (654) 
CHEMBL860

>  <canonical_smiles>  (654) 
CN(C)CC/C=C1\c2ccccc2COc2ccccc21

>  <standard_type>  (654) 
Ki

>  <standard_relation>  (654) 
=

>  <standard_value>  (654) 
25.3

>  <standard_units>  (654) 
nM

>  <target_pref_name>  (654) 
Serotonin 2b (5-HT2b) receptor

>  <target_chembl_id>  (654) 
CHEMBL1833

>  <target_organism>  (654) 
Homo sapiens

>  <pchembl_median>  (654) 
6.5

$$$$
CHEMBL4457754
     RDKit          2D

 20 23  0  0  0  0  0  0  0  0999 V2000
   -0.1399   -5.2674    0.0000 C   0  0  0  0  0  0  0  0  0  0  0  0
   -0.7500   -3.8971    0.0000 C   0  0  0  0  0  0  0  0  0  0  0  0
    0.7500   -3.8971    0.0000 C   0  0  0  0  0  0  0  0  0  0  0  0
    1.5000   -2.5981    0.0000 N   0  0  0  0  0  0  0  0  0  0  0  0
    3.0000   -2.5981    0.0000 C   0  0  0  0  0  0  0  0  0  0  0  0
    3.7500   -3.8971    0.0000 C   0  0  0  0  0  0  0  0  0  0  0  0
    5.2500   -3.8971    0.0000 C   0  0  0  0  0  0  0  0  0  0  0  0
    6.0000   -2.5981    0.0000 C   0  0  0  0  0  0  0  0  0  0  0  0
    5.2500   -1.2990    0.0000 C   0  0  0  0  0  0  0  0  0  0  0  0
    3.7500   -1.2990    0.0000 C   0  0  0  0  0  0  0  0  0  0  0  0
    0.7500   -1.2990    0.0000 C   0  0  0  0  0  0  0  0  0  0  0  0
    1.5000    0.0000    0.0000 C   0  0  0  0  0  0  0  0  0  0  0  0
    0.7500    1.2990    0.0000 C   0  0  0  0  0  0  0  0  0  0  0  0
   -0.7500    1.2990    0.0000 C   0  0  0  0  0  0  0  0  0  0  0  0
   -1.5000    0.0000    0.0000 C   0  0  0  0  0  0  0  0  0  0  0  0
   -0.7500   -1.2990    0.0000 C   0  0  0  0  0  0  0  0  0  0  0  0
   -1.5000   -2.5981    0.0000 C   0  0  0  0  0  0  0  0  0  0  0  0
   -2.9672   -2.9099    0.0000 C   0  0  0  0  0  0  0  0  0  0  0  0
   -3.1240   -4.4017    0.0000 C   0  0  0  0  0  0  0  0  0  0  0  0
   -1.7537   -5.0118    0.0000 N   0  0  0  0  0  0  0  0  0  0  0  0
  2  1  1  6
  2  3  1  0
  3  4  1  0
  4  5  1  0
  5  6  2  0
  6  7  1  0
  7  8  2  0
  8  9  1  0
  9 10  2  0
  4 11  1  0
 11 12  2  0
 12 13  1  0
 13 14  2  0
 14 15  1  0
 15 16  2  0
 16 17  1  0
 17 18  1  1
 18 19  1  0
 19 20  1  0
 17  2  1  0
 20  2  1  0
 10  5  1  0
 16 11  1  0
M  END
>  <assay_chembl_id>  (655) 
CHEMBL4308609

>  <assay_description>  (655) 
Displacement of [3H]-LSD from human recombinant 5-HT2B receptor stably expressed in HEK cells after 90 mins by microbeta scintillation counting method

>  <parent_molecule_chembl_id>  (655) 
CHEMBL4457754

>  <canonical_smiles>  (655) 
C[C@@]12CN(c3ccccc3)c3ccccc3[C@@H]1CCN2

>  <standard_type>  (655) 
Ki

>  <standard_relation>  (655) 
=

>  <standard_value>  (655) 
501.19

>  <standard_units>  (655) 
nM

>  <target_pref_name>  (655) 
Serotonin 2b (5-HT2b) receptor

>  <target_chembl_id>  (655) 
CHEMBL1833

>  <target_organism>  (655) 
Homo sapiens

>  <pchembl_median>  (655) 
6.65

$$$$
CHEMBL4472703
     RDKit          2D

 16 17  0  0  0  0  0  0  0  0999 V2000
    3.7500   -3.8971    0.0000 C   0  0  0  0  0  0  0  0  0  0  0  0
    3.0000   -2.5981    0.0000 C   0  0  0  0  0  0  0  0  0  0  0  0
    1.5000   -2.5981    0.0000 C   0  0  0  0  0  0  0  0  0  0  0  0
    0.7500   -1.2990    0.0000 C   0  0  0  0  0  0  0  0  0  0  0  0
    1.5000    0.0000    0.0000 C   0  0  0  0  0  0  0  0  0  0  0  0
    0.7500    1.2990    0.0000 C   0  0  0  0  0  0  0  0  0  0  0  0
    1.5000    2.5981    0.0000 O   0  0  0  0  0  0  0  0  0  0  0  0
    3.0000    2.5981    0.0000 C   0  0  0  0  0  0  0  0  0  0  0  0
   -0.7500    1.2990    0.0000 C   0  0  0  0  0  0  0  0  0  0  0  0
   -1.5000    0.0000    0.0000 C   0  0  0  0  0  0  0  0  0  0  0  0
   -0.7500   -1.2990    0.0000 C   0  0  0  0  0  0  0  0  0  0  0  0
   -1.5000   -2.5981    0.0000 C   0  0  0  0  0  0  0  0  0  0  0  0
   -0.7500   -3.8971    0.0000 C   0  0  0  0  0  0  0  0  0  0  0  0
    0.7500   -3.8971    0.0000 C   0  0  0  0  0  0  0  0  0  0  0  0
    0.4895   -5.3743    0.0000 C   0  0  0  0  0  0  0  0  0  0  0  0
    2.1595   -4.4101    0.0000 N   0  0  0  0  0  0  0  0  0  0  0  0
  1  2  1  0
  3  2  1  6
  3  4  1  0
  4  5  2  0
  5  6  1  0
  6  7  1  0
  7  8  1  0
  6  9  2  0
  9 10  1  0
 10 11  2  0
 11 12  1  0
 12 13  1  0
 13 14  1  0
 14 15  1  1
 14 16  1  0
 14  3  1  0
 11  4  1  0
M  END
>  <assay_chembl_id>  (656) 
CHEMBL4308609

>  <assay_description>  (656) 
Displacement of [3H]-LSD from human recombinant 5-HT2B receptor stably expressed in HEK cells after 90 mins by microbeta scintillation counting method

>  <parent_molecule_chembl_id>  (656) 
CHEMBL4472703

>  <canonical_smiles>  (656) 
CC[C@H]1c2cc(OC)ccc2CC[C@@]1(C)N

>  <standard_type>  (656) 
Ki

>  <standard_relation>  (656) 
=

>  <standard_value>  (656) 
144.54

>  <standard_units>  (656) 
nM

>  <target_pref_name>  (656) 
Serotonin 2b (5-HT2b) receptor

>  <target_chembl_id>  (656) 
CHEMBL1833

>  <target_organism>  (656) 
Homo sapiens

>  <pchembl_median>  (656) 
7.62

$$$$
CHEMBL4528651
     RDKit          2D

 15 16  0  0  0  0  0  0  0  0999 V2000
    3.7500   -3.8971    0.0000 C   0  0  0  0  0  0  0  0  0  0  0  0
    3.0000   -2.5981    0.0000 C   0  0  0  0  0  0  0  0  0  0  0  0
    1.5000   -2.5981    0.0000 C   0  0  0  0  0  0  0  0  0  0  0  0
    0.7500   -1.2990    0.0000 C   0  0  0  0  0  0  0  0  0  0  0  0
    1.5000    0.0000    0.0000 C   0  0  0  0  0  0  0  0  0  0  0  0
    0.7500    1.2990    0.0000 C   0  0  0  0  0  0  0  0  0  0  0  0
    1.5000    2.5981    0.0000 C   0  0  0  0  0  0  0  0  0  0  0  0
   -0.7500    1.2990    0.0000 C   0  0  0  0  0  0  0  0  0  0  0  0
   -1.5000    0.0000    0.0000 C   0  0  0  0  0  0  0  0  0  0  0  0
   -0.7500   -1.2990    0.0000 C   0  0  0  0  0  0  0  0  0  0  0  0
   -1.5000   -2.5981    0.0000 O   0  0  0  0  0  0  0  0  0  0  0  0
   -0.7500   -3.8971    0.0000 C   0  0  0  0  0  0  0  0  0  0  0  0
    0.7500   -3.8971    0.0000 C   0  0  0  0  0  0  0  0  0  0  0  0
    0.4895   -5.3743    0.0000 C   0  0  0  0  0  0  0  0  0  0  0  0
    2.1595   -4.4101    0.0000 N   0  0  0  0  0  0  0  0  0  0  0  0
  1  2  1  0
  3  2  1  6
  3  4  1  0
  4  5  2  0
  5  6  1  0
  6  7  1  0
  6  8  2  0
  8  9  1  0
  9 10  2  0
 10 11  1  0
 11 12  1  0
 12 13  1  0
 13 14  1  1
 13 15  1  0
 13  3  1  0
 10  4  1  0
M  END
>  <assay_chembl_id>  (657) 
CHEMBL4308609

>  <assay_description>  (657) 
Displacement of [3H]-LSD from human recombinant 5-HT2B receptor stably expressed in HEK cells after 90 mins by microbeta scintillation counting method

>  <parent_molecule_chembl_id>  (657) 
CHEMBL4528651

>  <canonical_smiles>  (657) 
CC[C@H]1c2cc(C)ccc2OC[C@@]1(C)N

>  <standard_type>  (657) 
Ki

>  <standard_relation>  (657) 
=

>  <standard_value>  (657) 
177.83

>  <standard_units>  (657) 
nM

>  <target_pref_name>  (657) 
Serotonin 2b (5-HT2b) receptor

>  <target_chembl_id>  (657) 
CHEMBL1833

>  <target_organism>  (657) 
Homo sapiens

>  <pchembl_median>  (657) 
7.68

$$$$
CHEMBL4572167
     RDKit          2D

 20 22  0  0  0  0  0  0  0  0999 V2000
    3.7500   -3.8971    0.0000 C   0  0  0  0  0  0  0  0  0  0  0  0
    3.0000   -2.5981    0.0000 C   0  0  0  0  0  0  0  0  0  0  0  0
    1.5000   -2.5981    0.0000 C   0  0  0  0  0  0  0  0  0  0  0  0
    0.7500   -1.2990    0.0000 C   0  0  0  0  0  0  0  0  0  0  0  0
    1.5000    0.0000    0.0000 C   0  0  0  0  0  0  0  0  0  0  0  0
    0.7500    1.2990    0.0000 C   0  0  0  0  0  0  0  0  0  0  0  0
   -0.7500    1.2990    0.0000 C   0  0  0  0  0  0  0  0  0  0  0  0
   -1.5000    0.0000    0.0000 C   0  0  0  0  0  0  0  0  0  0  0  0
   -0.7500   -1.2990    0.0000 C   0  0  0  0  0  0  0  0  0  0  0  0
   -1.5000   -2.5981    0.0000 N   0  0  0  0  0  0  0  0  0  0  0  0
   -3.0000   -2.5981    0.0000 C   0  0  0  0  0  0  0  0  0  0  0  0
   -3.7500   -1.2990    0.0000 C   0  0  0  0  0  0  0  0  0  0  0  0
   -5.2500   -1.2990    0.0000 C   0  0  0  0  0  0  0  0  0  0  0  0
   -6.0000   -2.5981    0.0000 C   0  0  0  0  0  0  0  0  0  0  0  0
   -5.2500   -3.8971    0.0000 C   0  0  0  0  0  0  0  0  0  0  0  0
   -3.7500   -3.8971    0.0000 C   0  0  0  0  0  0  0  0  0  0  0  0
   -0.7500   -3.8971    0.0000 C   0  0  0  0  0  0  0  0  0  0  0  0
    0.7500   -3.8971    0.0000 C   0  0  0  0  0  0  0  0  0  0  0  0
    0.4895   -5.3743    0.0000 C   0  0  0  0  0  0  0  0  0  0  0  0
    2.1595   -4.4101    0.0000 N   0  0  0  0  0  0  0  0  0  0  0  0
  1  2  1  0
  3  2  1  6
  3  4  1  0
  4  5  2  0
  5  6  1  0
  6  7  2  0
  7  8  1  0
  8  9  2  0
  9 10  1  0
 10 11  1  0
 11 12  2  0
 12 13  1  0
 13 14  2  0
 14 15  1  0
 15 16  2  0
 10 17  1  0
 17 18  1  0
 18 19  1  1
 18 20  1  0
 18  3  1  0
  9  4  1  0
 16 11  1  0
M  END
>  <assay_chembl_id>  (658) 
CHEMBL4308609

>  <assay_description>  (658) 
Displacement of [3H]-LSD from human recombinant 5-HT2B receptor stably expressed in HEK cells after 90 mins by microbeta scintillation counting method

>  <parent_molecule_chembl_id>  (658) 
CHEMBL4572167

>  <canonical_smiles>  (658) 
CC[C@H]1c2ccccc2N(c2ccccc2)C[C@@]1(C)N

>  <standard_type>  (658) 
Ki

>  <standard_relation>  (658) 
=

>  <standard_value>  (658) 
794.33

>  <standard_units>  (658) 
nM

>  <target_pref_name>  (658) 
Serotonin 2b (5-HT2b) receptor

>  <target_chembl_id>  (658) 
CHEMBL1833

>  <target_organism>  (658) 
Homo sapiens

>  <pchembl_median>  (658) 
5.46

$$$$
CHEMBL4458099
     RDKit          2D

 16 17  0  0  0  0  0  0  0  0999 V2000
    3.7500   -3.8971    0.0000 C   0  0  0  0  0  0  0  0  0  0  0  0
    3.0000   -2.5981    0.0000 C   0  0  0  0  0  0  0  0  0  0  0  0
    1.5000   -2.5981    0.0000 C   0  0  0  0  0  0  0  0  0  0  0  0
    0.7500   -1.2990    0.0000 C   0  0  0  0  0  0  0  0  0  0  0  0
    1.5000    0.0000    0.0000 C   0  0  0  0  0  0  0  0  0  0  0  0
    0.7500    1.2990    0.0000 C   0  0  0  0  0  0  0  0  0  0  0  0
    1.5000    2.5981    0.0000 O   0  0  0  0  0  0  0  0  0  0  0  0
    3.0000    2.5981    0.0000 C   0  0  0  0  0  0  0  0  0  0  0  0
   -0.7500    1.2990    0.0000 C   0  0  0  0  0  0  0  0  0  0  0  0
   -1.5000    0.0000    0.0000 C   0  0  0  0  0  0  0  0  0  0  0  0
   -0.7500   -1.2990    0.0000 C   0  0  0  0  0  0  0  0  0  0  0  0
   -1.5000   -2.5981    0.0000 O   0  0  0  0  0  0  0  0  0  0  0  0
   -0.7500   -3.8971    0.0000 C   0  0  0  0  0  0  0  0  0  0  0  0
    0.7500   -3.8971    0.0000 C   0  0  0  0  0  0  0  0  0  0  0  0
    0.4895   -5.3743    0.0000 C   0  0  0  0  0  0  0  0  0  0  0  0
    2.1595   -4.4101    0.0000 N   0  0  0  0  0  0  0  0  0  0  0  0
  1  2  1  0
  3  2  1  6
  3  4  1  0
  4  5  2  0
  5  6  1  0
  6  7  1  0
  7  8  1  0
  6  9  2  0
  9 10  1  0
 10 11  2  0
 11 12  1  0
 12 13  1  0
 13 14  1  0
 14 15  1  1
 14 16  1  0
 14  3  1  0
 11  4  1  0
M  END
>  <assay_chembl_id>  (659) 
CHEMBL4308609

>  <assay_description>  (659) 
Displacement of [3H]-LSD from human recombinant 5-HT2B receptor stably expressed in HEK cells after 90 mins by microbeta scintillation counting method

>  <parent_molecule_chembl_id>  (659) 
CHEMBL4458099

>  <canonical_smiles>  (659) 
CC[C@H]1c2cc(OC)ccc2OC[C@@]1(C)N

>  <standard_type>  (659) 
Ki

>  <standard_relation>  (659) 
=

>  <standard_value>  (659) 
251.19

>  <standard_units>  (659) 
nM

>  <target_pref_name>  (659) 
Serotonin 2b (5-HT2b) receptor

>  <target_chembl_id>  (659) 
CHEMBL1833

>  <target_organism>  (659) 
Homo sapiens

>  <pchembl_median>  (659) 
6.4

$$$$
CHEMBL4530979
     RDKit          2D

 20 22  0  0  0  0  0  0  0  0999 V2000
    3.7500   -3.8971    0.0000 C   0  0  0  0  0  0  0  0  0  0  0  0
    3.0000   -2.5981    0.0000 C   0  0  0  0  0  0  0  0  0  0  0  0
    1.5000   -2.5981    0.0000 C   0  0  0  0  0  0  0  0  0  0  0  0
    0.7500   -1.2990    0.0000 C   0  0  0  0  0  0  0  0  0  0  0  0
    1.5000    0.0000    0.0000 C   0  0  0  0  0  0  0  0  0  0  0  0
    0.7500    1.2990    0.0000 C   0  0  0  0  0  0  0  0  0  0  0  0
    1.5000    2.5981    0.0000 C   0  0  0  0  0  0  0  0  0  0  0  0
    3.0000    2.5981    0.0000 C   0  0  0  0  0  0  0  0  0  0  0  0
    3.7500    3.8971    0.0000 C   0  0  0  0  0  0  0  0  0  0  0  0
    3.0000    5.1962    0.0000 C   0  0  0  0  0  0  0  0  0  0  0  0
    1.5000    5.1962    0.0000 C   0  0  0  0  0  0  0  0  0  0  0  0
    0.7500    3.8971    0.0000 C   0  0  0  0  0  0  0  0  0  0  0  0
   -0.7500    1.2990    0.0000 C   0  0  0  0  0  0  0  0  0  0  0  0
   -1.5000    0.0000    0.0000 C   0  0  0  0  0  0  0  0  0  0  0  0
   -0.7500   -1.2990    0.0000 C   0  0  0  0  0  0  0  0  0  0  0  0
   -1.5000   -2.5981    0.0000 O   0  0  0  0  0  0  0  0  0  0  0  0
   -0.7500   -3.8971    0.0000 C   0  0  0  0  0  0  0  0  0  0  0  0
    0.7500   -3.8971    0.0000 C   0  0  0  0  0  0  0  0  0  0  0  0
    0.4895   -5.3743    0.0000 C   0  0  0  0  0  0  0  0  0  0  0  0
    2.1595   -4.4101    0.0000 N   0  0  0  0  0  0  0  0  0  0  0  0
  1  2  1  0
  3  2  1  6
  3  4  1  0
  4  5  2  0
  5  6  1  0
  6  7  1  0
  7  8  2  0
  8  9  1  0
  9 10  2  0
 10 11  1  0
 11 12  2  0
  6 13  2  0
 13 14  1  0
 14 15  2  0
 15 16  1  0
 16 17  1  0
 17 18  1  0
 18 19  1  1
 18 20  1  0
 18  3  1  0
 15  4  1  0
 12  7  1  0
M  END
>  <assay_chembl_id>  (660) 
CHEMBL4308609

>  <assay_description>  (660) 
Displacement of [3H]-LSD from human recombinant 5-HT2B receptor stably expressed in HEK cells after 90 mins by microbeta scintillation counting method

>  <parent_molecule_chembl_id>  (660) 
CHEMBL4530979

>  <canonical_smiles>  (660) 
CC[C@H]1c2cc(-c3ccccc3)ccc2OC[C@@]1(C)N

>  <standard_type>  (660) 
Ki

>  <standard_relation>  (660) 
=

>  <standard_value>  (660) 
125.89

>  <standard_units>  (660) 
nM

>  <target_pref_name>  (660) 
Serotonin 2b (5-HT2b) receptor

>  <target_chembl_id>  (660) 
CHEMBL1833

>  <target_organism>  (660) 
Homo sapiens

>  <pchembl_median>  (660) 
6.49

$$$$
CHEMBL4583909
     RDKit          2D

 18 20  0  0  0  0  0  0  0  0999 V2000
   -1.5000   -7.7942    0.0000 C   0  0  0  0  0  0  0  0  0  0  0  0
   -0.7500   -6.4952    0.0000 C   0  0  0  0  0  0  0  0  0  0  0  0
   -1.5000   -5.1962    0.0000 C   0  0  0  0  0  0  0  0  0  0  0  0
   -0.7500   -3.8971    0.0000 C   0  0  0  0  0  0  0  0  0  0  0  0
    0.7500   -3.8971    0.0000 C   0  0  0  0  0  0  0  0  0  0  0  0
    1.5000   -2.5981    0.0000 C   0  0  0  0  0  0  0  0  0  0  0  0
    0.7500   -1.2990    0.0000 C   0  0  0  0  0  0  0  0  0  0  0  0
    1.5000    0.0000    0.0000 C   0  0  0  0  0  0  0  0  0  0  0  0
    0.7500    1.2990    0.0000 C   0  0  0  0  0  0  0  0  0  0  0  0
   -0.7500    1.2990    0.0000 C   0  0  0  0  0  0  0  0  0  0  0  0
   -1.5000    0.0000    0.0000 C   0  0  0  0  0  0  0  0  0  0  0  0
   -0.7500   -1.2990    0.0000 C   0  0  0  0  0  0  0  0  0  0  0  0
   -1.5000   -2.5981    0.0000 C   0  0  0  0  0  0  0  0  0  0  0  0
   -3.0000   -2.5981    0.0000 O   0  0  0  0  0  0  0  0  0  0  0  0
   -3.7500   -3.8971    0.0000 C   0  0  0  0  0  0  0  0  0  0  0  0
   -3.0000   -5.1962    0.0000 C   0  0  0  0  0  0  0  0  0  0  0  0
   -4.4095   -5.7092    0.0000 C   0  0  0  0  0  0  0  0  0  0  0  0
   -2.7395   -6.6734    0.0000 N   0  0  0  0  0  0  0  0  0  0  0  0
  1  2  1  0
  3  2  1  6
  3  4  1  0
  4  5  2  0
  5  6  1  0
  6  7  2  0
  7  8  1  0
  8  9  2  0
  9 10  1  0
 10 11  2  0
 11 12  1  0
 12 13  2  0
 13 14  1  0
 14 15  1  0
 15 16  1  0
 16 17  1  1
 16 18  1  0
 16  3  1  0
 13  4  1  0
 12  7  1  0
M  END
>  <assay_chembl_id>  (661) 
CHEMBL4308609

>  <assay_description>  (661) 
Displacement of [3H]-LSD from human recombinant 5-HT2B receptor stably expressed in HEK cells after 90 mins by microbeta scintillation counting method

>  <parent_molecule_chembl_id>  (661) 
CHEMBL4583909

>  <canonical_smiles>  (661) 
CC[C@H]1c2ccc3ccccc3c2OC[C@@]1(C)N

>  <standard_type>  (661) 
Ki

>  <standard_relation>  (661) 
=

>  <standard_value>  (661) 
2.512

>  <standard_units>  (661) 
nM

>  <target_pref_name>  (661) 
Serotonin 2b (5-HT2b) receptor

>  <target_chembl_id>  (661) 
CHEMBL1833

>  <target_organism>  (661) 
Homo sapiens

>  <pchembl_median>  (661) 
6.41

$$$$
CHEMBL4513930
     RDKit          2D

 18 20  0  0  0  0  0  0  0  0999 V2000
   -5.2500   -1.2990    0.0000 C   0  0  0  0  0  0  0  0  0  0  0  0
   -3.7500   -1.2990    0.0000 C   0  0  0  0  0  0  0  0  0  0  0  0
   -3.0000   -2.5981    0.0000 C   0  0  0  0  0  0  0  0  0  0  0  0
   -1.5000   -2.5981    0.0000 C   0  0  0  0  0  0  0  0  0  0  0  0
   -0.7500   -3.8971    0.0000 C   0  0  0  0  0  0  0  0  0  0  0  0
    0.7500   -3.8971    0.0000 C   0  0  0  0  0  0  0  0  0  0  0  0
    1.5000   -2.5981    0.0000 C   0  0  0  0  0  0  0  0  0  0  0  0
    0.7500   -1.2990    0.0000 C   0  0  0  0  0  0  0  0  0  0  0  0
    1.5000    0.0000    0.0000 C   0  0  0  0  0  0  0  0  0  0  0  0
    0.7500    1.2990    0.0000 C   0  0  0  0  0  0  0  0  0  0  0  0
   -0.7500    1.2990    0.0000 C   0  0  0  0  0  0  0  0  0  0  0  0
   -1.5000    0.0000    0.0000 C   0  0  0  0  0  0  0  0  0  0  0  0
   -0.7500   -1.2990    0.0000 C   0  0  0  0  0  0  0  0  0  0  0  0
   -1.5000   -5.1962    0.0000 O   0  0  0  0  0  0  0  0  0  0  0  0
   -3.0000   -5.1962    0.0000 C   0  0  0  0  0  0  0  0  0  0  0  0
   -3.7500   -3.8971    0.0000 C   0  0  0  0  0  0  0  0  0  0  0  0
   -4.8991   -4.8613    0.0000 C   0  0  0  0  0  0  0  0  0  0  0  0
   -4.8991   -2.9329    0.0000 N   0  0  0  0  0  0  0  0  0  0  0  0
  1  2  1  0
  3  2  1  1
  3  4  1  0
  4  5  2  0
  5  6  1  0
  6  7  2  0
  7  8  1  0
  8  9  2  0
  9 10  1  0
 10 11  2  0
 11 12  1  0
 12 13  2  0
  5 14  1  0
 14 15  1  0
 15 16  1  0
 16 17  1  6
 16 18  1  0
 16  3  1  0
 13  4  1  0
 13  8  1  0
M  END
>  <assay_chembl_id>  (662) 
CHEMBL4308609

>  <assay_description>  (662) 
Displacement of [3H]-LSD from human recombinant 5-HT2B receptor stably expressed in HEK cells after 90 mins by microbeta scintillation counting method

>  <parent_molecule_chembl_id>  (662) 
CHEMBL4513930

>  <canonical_smiles>  (662) 
CC[C@H]1c2c(ccc3ccccc23)OC[C@@]1(C)N

>  <standard_type>  (662) 
Ki

>  <standard_relation>  (662) 
=

>  <standard_value>  (662) 
19.95

>  <standard_units>  (662) 
nM

>  <target_pref_name>  (662) 
Serotonin 2b (5-HT2b) receptor

>  <target_chembl_id>  (662) 
CHEMBL1833

>  <target_organism>  (662) 
Homo sapiens

>  <pchembl_median>  (662) 
6.2

$$$$
CHEMBL4591008
     RDKit          2D

 20 23  0  0  0  0  0  0  0  0999 V2000
   -2.4026    0.1399    0.0000 C   0  0  0  0  0  0  0  0  0  0  0  0
   -1.0323    0.7500    0.0000 C   0  0  0  0  0  0  0  0  0  0  0  0
   -2.1470    1.7537    0.0000 C   0  0  0  0  0  0  0  0  0  0  0  0
   -1.8351    3.2209    0.0000 O   0  0  0  0  0  0  0  0  0  0  0  0
   -0.4086    3.6844    0.0000 C   0  0  0  0  0  0  0  0  0  0  0  0
   -0.0967    5.1517    0.0000 C   0  0  0  0  0  0  0  0  0  0  0  0
    1.3299    5.6152    0.0000 C   0  0  0  0  0  0  0  0  0  0  0  0
    2.4446    4.6115    0.0000 C   0  0  0  0  0  0  0  0  0  0  0  0
    3.8712    5.0750    0.0000 C   0  0  0  0  0  0  0  0  0  0  0  0
    4.9859    4.0713    0.0000 C   0  0  0  0  0  0  0  0  0  0  0  0
    6.4125    4.5348    0.0000 C   0  0  0  0  0  0  0  0  0  0  0  0
    6.7244    6.0021    0.0000 C   0  0  0  0  0  0  0  0  0  0  0  0
    5.6097    7.0058    0.0000 C   0  0  0  0  0  0  0  0  0  0  0  0
    4.1831    6.5422    0.0000 C   0  0  0  0  0  0  0  0  0  0  0  0
    2.1328    3.1443    0.0000 C   0  0  0  0  0  0  0  0  0  0  0  0
    0.7062    2.6807    0.0000 C   0  0  0  0  0  0  0  0  0  0  0  0
    0.3943    1.2135    0.0000 C   0  0  0  0  0  0  0  0  0  0  0  0
    1.2760    0.0000    0.0000 C   0  0  0  0  0  0  0  0  0  0  0  0
    0.3943   -1.2135    0.0000 C   0  0  0  0  0  0  0  0  0  0  0  0
   -1.0323   -0.7500    0.0000 N   0  0  0  0  0  0  0  0  0  0  0  0
  2  1  1  1
  2  3  1  0
  3  4  1  0
  4  5  1  0
  5  6  2  0
  6  7  1  0
  7  8  2  0
  8  9  1  0
  9 10  2  0
 10 11  1  0
 11 12  2  0
 12 13  1  0
 13 14  2  0
  8 15  1  0
 15 16  2  0
 16 17  1  0
 17 18  1  6
 18 19  1  0
 19 20  1  0
 17  2  1  0
 20  2  1  0
 16  5  1  0
 14  9  1  0
M  END
>  <assay_chembl_id>  (663) 
CHEMBL4308609

>  <assay_description>  (663) 
Displacement of [3H]-LSD from human recombinant 5-HT2B receptor stably expressed in HEK cells after 90 mins by microbeta scintillation counting method

>  <parent_molecule_chembl_id>  (663) 
CHEMBL4591008

>  <canonical_smiles>  (663) 
C[C@@]12COc3ccc(-c4ccccc4)cc3[C@@H]1CCN2

>  <standard_type>  (663) 
Ki

>  <standard_relation>  (663) 
=

>  <standard_value>  (663) 
251.19

>  <standard_units>  (663) 
nM

>  <target_pref_name>  (663) 
Serotonin 2b (5-HT2b) receptor

>  <target_chembl_id>  (663) 
CHEMBL1833

>  <target_organism>  (663) 
Homo sapiens

>  <pchembl_median>  (663) 
6.82

$$$$
CHEMBL4556297
     RDKit          2D

 16 18  0  0  0  0  0  0  0  0999 V2000
    4.9859    4.0713    0.0000 C   0  0  0  0  0  0  0  0  0  0  0  0
    3.8712    5.0750    0.0000 O   0  0  0  0  0  0  0  0  0  0  0  0
    2.4446    4.6115    0.0000 C   0  0  0  0  0  0  0  0  0  0  0  0
    1.3299    5.6152    0.0000 C   0  0  0  0  0  0  0  0  0  0  0  0
   -0.0967    5.1517    0.0000 C   0  0  0  0  0  0  0  0  0  0  0  0
   -0.4086    3.6844    0.0000 C   0  0  0  0  0  0  0  0  0  0  0  0
    0.7062    2.6807    0.0000 C   0  0  0  0  0  0  0  0  0  0  0  0
    2.1328    3.1443    0.0000 C   0  0  0  0  0  0  0  0  0  0  0  0
    0.3943    1.2135    0.0000 C   0  0  0  0  0  0  0  0  0  0  0  0
    1.2760    0.0000    0.0000 C   0  0  0  0  0  0  0  0  0  0  0  0
    0.3943   -1.2135    0.0000 C   0  0  0  0  0  0  0  0  0  0  0  0
   -1.0323   -0.7500    0.0000 N   0  0  0  0  0  0  0  0  0  0  0  0
   -1.0323    0.7500    0.0000 C   0  0  0  0  0  0  0  0  0  0  0  0
   -2.4026    0.1399    0.0000 C   0  0  0  0  0  0  0  0  0  0  0  0
   -2.1470    1.7537    0.0000 C   0  0  0  0  0  0  0  0  0  0  0  0
   -1.8351    3.2209    0.0000 O   0  0  0  0  0  0  0  0  0  0  0  0
  1  2  1  0
  2  3  1  0
  3  4  2  0
  4  5  1  0
  5  6  2  0
  6  7  1  0
  7  8  2  0
  7  9  1  0
  9 10  1  6
 10 11  1  0
 11 12  1  0
 12 13  1  0
 13 14  1  1
 13 15  1  0
 15 16  1  0
  8  3  1  0
 13  9  1  0
 16  6  1  0
M  END
>  <assay_chembl_id>  (664) 
CHEMBL4308609

>  <assay_description>  (664) 
Displacement of [3H]-LSD from human recombinant 5-HT2B receptor stably expressed in HEK cells after 90 mins by microbeta scintillation counting method

>  <parent_molecule_chembl_id>  (664) 
CHEMBL4556297

>  <canonical_smiles>  (664) 
COc1ccc2c(c1)[C@@H]1CCN[C@]1(C)CO2

>  <standard_type>  (664) 
Ki

>  <standard_relation>  (664) 
=

>  <standard_value>  (664) 
630.96

>  <standard_units>  (664) 
nM

>  <target_pref_name>  (664) 
Serotonin 2b (5-HT2b) receptor

>  <target_chembl_id>  (664) 
CHEMBL1833

>  <target_organism>  (664) 
Homo sapiens

>  <pchembl_median>  (664) 
6.03

$$$$
CHEMBL4589450
     RDKit          2D

 22 25  0  0  0  0  0  0  0  0999 V2000
   -2.4026    0.1399    0.0000 C   0  0  0  0  0  0  0  0  0  0  0  0
   -1.0323    0.7500    0.0000 C   0  0  0  0  0  0  0  0  0  0  0  0
   -2.1470    1.7537    0.0000 C   0  0  0  0  0  0  0  0  0  0  0  0
   -1.8351    3.2209    0.0000 O   0  0  0  0  0  0  0  0  0  0  0  0
   -0.4086    3.6844    0.0000 C   0  0  0  0  0  0  0  0  0  0  0  0
   -0.0967    5.1517    0.0000 C   0  0  0  0  0  0  0  0  0  0  0  0
    1.3299    5.6152    0.0000 C   0  0  0  0  0  0  0  0  0  0  0  0
    1.6418    7.0824    0.0000 O   0  0  0  0  0  0  0  0  0  0  0  0
    3.0684    7.5459    0.0000 C   0  0  0  0  0  0  0  0  0  0  0  0
    3.3802    9.0132    0.0000 C   0  0  0  0  0  0  0  0  0  0  0  0
    4.8068    9.4767    0.0000 C   0  0  0  0  0  0  0  0  0  0  0  0
    5.1187   10.9439    0.0000 C   0  0  0  0  0  0  0  0  0  0  0  0
    4.0040   11.9476    0.0000 C   0  0  0  0  0  0  0  0  0  0  0  0
    2.5774   11.4841    0.0000 C   0  0  0  0  0  0  0  0  0  0  0  0
    2.2655   10.0169    0.0000 C   0  0  0  0  0  0  0  0  0  0  0  0
    2.4446    4.6115    0.0000 C   0  0  0  0  0  0  0  0  0  0  0  0
    2.1328    3.1443    0.0000 C   0  0  0  0  0  0  0  0  0  0  0  0
    0.7062    2.6807    0.0000 C   0  0  0  0  0  0  0  0  0  0  0  0
    0.3943    1.2135    0.0000 C   0  0  0  0  0  0  0  0  0  0  0  0
    1.2760    0.0000    0.0000 C   0  0  0  0  0  0  0  0  0  0  0  0
    0.3943   -1.2135    0.0000 C   0  0  0  0  0  0  0  0  0  0  0  0
   -1.0323   -0.7500    0.0000 N   0  0  0  0  0  0  0  0  0  0  0  0
  2  1  1  1
  2  3  1  0
  3  4  1  0
  4  5  1  0
  5  6  2  0
  6  7  1  0
  7  8  1  0
  8  9  1  0
  9 10  1  0
 10 11  2  0
 11 12  1  0
 12 13  2  0
 13 14  1  0
 14 15  2  0
  7 16  2  0
 16 17  1  0
 17 18  2  0
 18 19  1  0
 19 20  1  6
 20 21  1  0
 21 22  1  0
 19  2  1  0
 22  2  1  0
 18  5  1  0
 15 10  1  0
M  END
>  <assay_chembl_id>  (665) 
CHEMBL4308609

>  <assay_description>  (665) 
Displacement of [3H]-LSD from human recombinant 5-HT2B receptor stably expressed in HEK cells after 90 mins by microbeta scintillation counting method

>  <parent_molecule_chembl_id>  (665) 
CHEMBL4589450

>  <canonical_smiles>  (665) 
C[C@@]12COc3cc(OCc4ccccc4)ccc3[C@@H]1CCN2

>  <standard_type>  (665) 
Ki

>  <standard_relation>  (665) 
=

>  <standard_value>  (665) 
125.89

>  <standard_units>  (665) 
nM

>  <target_pref_name>  (665) 
Serotonin 2b (5-HT2b) receptor

>  <target_chembl_id>  (665) 
CHEMBL1833

>  <target_organism>  (665) 
Homo sapiens

>  <pchembl_median>  (665) 
5.75

$$$$
CHEMBL4564308
     RDKit          2D

 16 18  0  0  0  0  0  0  0  0999 V2000
    1.4418   -6.4791    0.0000 C   0  0  0  0  0  0  0  0  0  0  0  0
    1.7537   -5.0118    0.0000 N   0  0  0  0  0  0  0  0  0  0  0  0
    3.1240   -4.4017    0.0000 C   0  0  0  0  0  0  0  0  0  0  0  0
    2.9672   -2.9099    0.0000 C   0  0  0  0  0  0  0  0  0  0  0  0
    1.5000   -2.5981    0.0000 C   0  0  0  0  0  0  0  0  0  0  0  0
    0.7500   -1.2990    0.0000 C   0  0  0  0  0  0  0  0  0  0  0  0
    1.5000    0.0000    0.0000 C   0  0  0  0  0  0  0  0  0  0  0  0
    0.7500    1.2990    0.0000 C   0  0  0  0  0  0  0  0  0  0  0  0
   -0.7500    1.2990    0.0000 C   0  0  0  0  0  0  0  0  0  0  0  0
   -1.5000    2.5981    0.0000 O   0  0  0  0  0  0  0  0  0  0  0  0
   -1.5000    0.0000    0.0000 C   0  0  0  0  0  0  0  0  0  0  0  0
   -0.7500   -1.2990    0.0000 C   0  0  0  0  0  0  0  0  0  0  0  0
   -1.5000   -2.5981    0.0000 O   0  0  0  0  0  0  0  0  0  0  0  0
   -0.7500   -3.8971    0.0000 C   0  0  0  0  0  0  0  0  0  0  0  0
    0.7500   -3.8971    0.0000 C   0  0  0  0  0  0  0  0  0  0  0  0
    0.1399   -5.2674    0.0000 C   0  0  0  0  0  0  0  0  0  0  0  0
  1  2  1  0
  2  3  1  0
  3  4  1  0
  5  4  1  6
  5  6  1  0
  6  7  2  0
  7  8  1  0
  8  9  2  0
  9 10  1  0
  9 11  1  0
 11 12  2  0
 12 13  1  0
 13 14  1  0
 14 15  1  0
 15 16  1  1
 15  2  1  0
 15  5  1  0
 12  6  1  0
M  END
>  <assay_chembl_id>  (666) 
CHEMBL4308609

>  <assay_description>  (666) 
Displacement of [3H]-LSD from human recombinant 5-HT2B receptor stably expressed in HEK cells after 90 mins by microbeta scintillation counting method

>  <parent_molecule_chembl_id>  (666) 
CHEMBL4564308

>  <canonical_smiles>  (666) 
CN1CC[C@H]2c3ccc(O)cc3OC[C@]21C

>  <standard_type>  (666) 
Ki

>  <standard_relation>  (666) 
=

>  <standard_value>  (666) 
1000.0

>  <standard_units>  (666) 
nM

>  <target_pref_name>  (666) 
Serotonin 2b (5-HT2b) receptor

>  <target_chembl_id>  (666) 
CHEMBL1833

>  <target_organism>  (666) 
Homo sapiens

>  <pchembl_median>  (666) 
7.75

$$$$
CHEMBL4447975
     RDKit          2D

 18 20  0  0  0  0  0  0  0  0999 V2000
   -5.1793    6.2320    0.0000 C   0  0  0  0  0  0  0  0  0  0  0  0
   -5.4912    4.7648    0.0000 O   0  0  0  0  0  0  0  0  0  0  0  0
   -4.3764    3.7611    0.0000 C   0  0  0  0  0  0  0  0  0  0  0  0
   -4.6883    2.2939    0.0000 C   0  0  0  0  0  0  0  0  0  0  0  0
   -3.5736    1.2902    0.0000 C   0  0  0  0  0  0  0  0  0  0  0  0
   -3.8855   -0.1771    0.0000 O   0  0  0  0  0  0  0  0  0  0  0  0
   -5.3120   -0.6406    0.0000 C   0  0  0  0  0  0  0  0  0  0  0  0
   -2.1470    1.7537    0.0000 C   0  0  0  0  0  0  0  0  0  0  0  0
   -1.8351    3.2209    0.0000 C   0  0  0  0  0  0  0  0  0  0  0  0
   -2.9499    4.2246    0.0000 C   0  0  0  0  0  0  0  0  0  0  0  0
   -0.4086    3.6844    0.0000 O   0  0  0  0  0  0  0  0  0  0  0  0
    0.7062    2.6807    0.0000 C   0  0  0  0  0  0  0  0  0  0  0  0
    0.3943    1.2135    0.0000 C   0  0  0  0  0  0  0  0  0  0  0  0
    1.8615    1.5254    0.0000 C   0  0  0  0  0  0  0  0  0  0  0  0
    1.2760    0.0000    0.0000 N   0  0  0  0  0  0  0  0  0  0  0  0
    0.3943   -1.2135    0.0000 C   0  0  0  0  0  0  0  0  0  0  0  0
   -1.0323   -0.7500    0.0000 C   0  0  0  0  0  0  0  0  0  0  0  0
   -1.0323    0.7500    0.0000 C   0  0  0  0  0  0  0  0  0  0  0  0
  1  2  1  0
  2  3  1  0
  3  4  2  0
  4  5  1  0
  5  6  1  0
  6  7  1  0
  5  8  2  0
  8  9  1  0
  9 10  2  0
  9 11  1  0
 11 12  1  0
 12 13  1  0
 13 14  1  6
 13 15  1  0
 15 16  1  0
 16 17  1  0
 18 17  1  1
 10  3  1  0
 18 13  1  0
 18  8  1  0
M  END
>  <assay_chembl_id>  (667) 
CHEMBL4308609

>  <assay_description>  (667) 
Displacement of [3H]-LSD from human recombinant 5-HT2B receptor stably expressed in HEK cells after 90 mins by microbeta scintillation counting method

>  <parent_molecule_chembl_id>  (667) 
CHEMBL4447975

>  <canonical_smiles>  (667) 
COc1cc(OC)c2c(c1)OC[C@@]1(C)NCC[C@@H]21

>  <standard_type>  (667) 
Ki

>  <standard_relation>  (667) 
=

>  <standard_value>  (667) 
251.19

>  <standard_units>  (667) 
nM

>  <target_pref_name>  (667) 
Serotonin 2b (5-HT2b) receptor

>  <target_chembl_id>  (667) 
CHEMBL1833

>  <target_organism>  (667) 
Homo sapiens

>  <pchembl_median>  (667) 
7.66

$$$$
CHEMBL4456195
     RDKit          2D

 16 18  0  0  0  0  0  0  0  0999 V2000
   -5.4912    4.7648    0.0000 C   0  0  0  0  0  0  0  0  0  0  0  0
   -4.3764    3.7611    0.0000 C   0  0  0  0  0  0  0  0  0  0  0  0
   -4.6883    2.2939    0.0000 C   0  0  0  0  0  0  0  0  0  0  0  0
   -3.5736    1.2902    0.0000 C   0  0  0  0  0  0  0  0  0  0  0  0
   -3.8855   -0.1771    0.0000 C   0  0  0  0  0  0  0  0  0  0  0  0
   -2.1470    1.7537    0.0000 C   0  0  0  0  0  0  0  0  0  0  0  0
   -1.8351    3.2209    0.0000 C   0  0  0  0  0  0  0  0  0  0  0  0
   -2.9499    4.2246    0.0000 C   0  0  0  0  0  0  0  0  0  0  0  0
   -0.4086    3.6844    0.0000 O   0  0  0  0  0  0  0  0  0  0  0  0
    0.7062    2.6807    0.0000 C   0  0  0  0  0  0  0  0  0  0  0  0
    0.3943    1.2135    0.0000 C   0  0  0  0  0  0  0  0  0  0  0  0
    1.8615    1.5254    0.0000 C   0  0  0  0  0  0  0  0  0  0  0  0
    1.2760    0.0000    0.0000 N   0  0  0  0  0  0  0  0  0  0  0  0
    0.3943   -1.2135    0.0000 C   0  0  0  0  0  0  0  0  0  0  0  0
   -1.0323   -0.7500    0.0000 C   0  0  0  0  0  0  0  0  0  0  0  0
   -1.0323    0.7500    0.0000 C   0  0  0  0  0  0  0  0  0  0  0  0
  1  2  1  0
  2  3  2  0
  3  4  1  0
  4  5  1  0
  4  6  2  0
  6  7  1  0
  7  8  2  0
  7  9  1  0
  9 10  1  0
 10 11  1  0
 11 12  1  6
 11 13  1  0
 13 14  1  0
 14 15  1  0
 16 15  1  1
  8  2  1  0
 16 11  1  0
 16  6  1  0
M  END
>  <assay_chembl_id>  (668) 
CHEMBL4308609

>  <assay_description>  (668) 
Displacement of [3H]-LSD from human recombinant 5-HT2B receptor stably expressed in HEK cells after 90 mins by microbeta scintillation counting method

>  <parent_molecule_chembl_id>  (668) 
CHEMBL4456195

>  <canonical_smiles>  (668) 
Cc1cc(C)c2c(c1)OC[C@@]1(C)NCC[C@@H]21

>  <standard_type>  (668) 
Ki

>  <standard_relation>  (668) 
=

>  <standard_value>  (668) 
79.43

>  <standard_units>  (668) 
nM

>  <target_pref_name>  (668) 
Serotonin 2b (5-HT2b) receptor

>  <target_chembl_id>  (668) 
CHEMBL1833

>  <target_organism>  (668) 
Homo sapiens

>  <pchembl_median>  (668) 
6.98

$$$$
CHEMBL4435237
     RDKit          2D

 20 23  0  0  0  0  0  0  0  0999 V2000
   -2.4026    0.1399    0.0000 C   0  0  0  0  0  0  0  0  0  0  0  0
   -1.0323    0.7500    0.0000 C   0  0  0  0  0  0  0  0  0  0  0  0
   -2.1470    1.7537    0.0000 C   0  0  0  0  0  0  0  0  0  0  0  0
   -1.8351    3.2209    0.0000 O   0  0  0  0  0  0  0  0  0  0  0  0
   -0.4086    3.6844    0.0000 C   0  0  0  0  0  0  0  0  0  0  0  0
   -0.0967    5.1517    0.0000 C   0  0  0  0  0  0  0  0  0  0  0  0
   -1.2114    6.1554    0.0000 C   0  0  0  0  0  0  0  0  0  0  0  0
   -0.8995    7.6226    0.0000 C   0  0  0  0  0  0  0  0  0  0  0  0
   -2.0143    8.6263    0.0000 C   0  0  0  0  0  0  0  0  0  0  0  0
   -3.4408    8.1628    0.0000 C   0  0  0  0  0  0  0  0  0  0  0  0
   -3.7527    6.6955    0.0000 C   0  0  0  0  0  0  0  0  0  0  0  0
   -2.6380    5.6918    0.0000 C   0  0  0  0  0  0  0  0  0  0  0  0
    1.3299    5.6152    0.0000 C   0  0  0  0  0  0  0  0  0  0  0  0
    2.4446    4.6115    0.0000 C   0  0  0  0  0  0  0  0  0  0  0  0
    2.1328    3.1443    0.0000 C   0  0  0  0  0  0  0  0  0  0  0  0
    0.7062    2.6807    0.0000 C   0  0  0  0  0  0  0  0  0  0  0  0
    0.3943    1.2135    0.0000 C   0  0  0  0  0  0  0  0  0  0  0  0
    1.2760    0.0000    0.0000 C   0  0  0  0  0  0  0  0  0  0  0  0
    0.3943   -1.2135    0.0000 C   0  0  0  0  0  0  0  0  0  0  0  0
   -1.0323   -0.7500    0.0000 N   0  0  0  0  0  0  0  0  0  0  0  0
  2  1  1  1
  2  3  1  0
  3  4  1  0
  4  5  1  0
  5  6  2  0
  6  7  1  0
  7  8  2  0
  8  9  1  0
  9 10  2  0
 10 11  1  0
 11 12  2  0
  6 13  1  0
 13 14  2  0
 14 15  1  0
 15 16  2  0
 16 17  1  0
 17 18  1  6
 18 19  1  0
 19 20  1  0
 17  2  1  0
 20  2  1  0
 16  5  1  0
 12  7  1  0
M  END
>  <assay_chembl_id>  (669) 
CHEMBL4308609

>  <assay_description>  (669) 
Displacement of [3H]-LSD from human recombinant 5-HT2B receptor stably expressed in HEK cells after 90 mins by microbeta scintillation counting method

>  <parent_molecule_chembl_id>  (669) 
CHEMBL4435237

>  <canonical_smiles>  (669) 
C[C@@]12COc3c(-c4ccccc4)cccc3[C@@H]1CCN2

>  <standard_type>  (669) 
Ki

>  <standard_relation>  (669) 
=

>  <standard_value>  (669) 
158.49

>  <standard_units>  (669) 
nM

>  <target_pref_name>  (669) 
Serotonin 2b (5-HT2b) receptor

>  <target_chembl_id>  (669) 
CHEMBL1833

>  <target_organism>  (669) 
Homo sapiens

>  <pchembl_median>  (669) 
6.44

$$$$
CHEMBL4473697
     RDKit          2D

 21 24  0  0  0  0  0  0  0  0999 V2000
    1.4418   -6.4791    0.0000 C   0  0  0  0  0  0  0  0  0  0  0  0
    1.7537   -5.0118    0.0000 N   0  0  0  0  0  0  0  0  0  0  0  0
    3.1240   -4.4017    0.0000 C   0  0  0  0  0  0  0  0  0  0  0  0
    2.9672   -2.9099    0.0000 C   0  0  0  0  0  0  0  0  0  0  0  0
    1.5000   -2.5981    0.0000 C   0  0  0  0  0  0  0  0  0  0  0  0
    0.7500   -1.2990    0.0000 C   0  0  0  0  0  0  0  0  0  0  0  0
    1.5000    0.0000    0.0000 C   0  0  0  0  0  0  0  0  0  0  0  0
    0.7500    1.2990    0.0000 C   0  0  0  0  0  0  0  0  0  0  0  0
   -0.7500    1.2990    0.0000 C   0  0  0  0  0  0  0  0  0  0  0  0
   -1.5000    0.0000    0.0000 C   0  0  0  0  0  0  0  0  0  0  0  0
   -3.0000    0.0000    0.0000 C   0  0  0  0  0  0  0  0  0  0  0  0
   -3.7500    1.2990    0.0000 C   0  0  0  0  0  0  0  0  0  0  0  0
   -5.2500    1.2990    0.0000 C   0  0  0  0  0  0  0  0  0  0  0  0
   -6.0000    0.0000    0.0000 C   0  0  0  0  0  0  0  0  0  0  0  0
   -5.2500   -1.2990    0.0000 C   0  0  0  0  0  0  0  0  0  0  0  0
   -3.7500   -1.2990    0.0000 C   0  0  0  0  0  0  0  0  0  0  0  0
   -0.7500   -1.2990    0.0000 C   0  0  0  0  0  0  0  0  0  0  0  0
   -1.5000   -2.5981    0.0000 O   0  0  0  0  0  0  0  0  0  0  0  0
   -0.7500   -3.8971    0.0000 C   0  0  0  0  0  0  0  0  0  0  0  0
    0.7500   -3.8971    0.0000 C   0  0  0  0  0  0  0  0  0  0  0  0
    0.1399   -5.2674    0.0000 C   0  0  0  0  0  0  0  0  0  0  0  0
  1  2  1  0
  2  3  1  0
  3  4  1  0
  5  4  1  6
  5  6  1  0
  6  7  2  0
  7  8  1  0
  8  9  2  0
  9 10  1  0
 10 11  1  0
 11 12  2  0
 12 13  1  0
 13 14  2  0
 14 15  1  0
 15 16  2  0
 10 17  2  0
 17 18  1  0
 18 19  1  0
 19 20  1  0
 20 21  1  1
 20  2  1  0
 20  5  1  0
 17  6  1  0
 16 11  1  0
M  END
>  <assay_chembl_id>  (670) 
CHEMBL4308609

>  <assay_description>  (670) 
Displacement of [3H]-LSD from human recombinant 5-HT2B receptor stably expressed in HEK cells after 90 mins by microbeta scintillation counting method

>  <parent_molecule_chembl_id>  (670) 
CHEMBL4473697

>  <canonical_smiles>  (670) 
CN1CC[C@H]2c3cccc(-c4ccccc4)c3OC[C@]21C

>  <standard_type>  (670) 
Ki

>  <standard_relation>  (670) 
=

>  <standard_value>  (670) 
251.19

>  <standard_units>  (670) 
nM

>  <target_pref_name>  (670) 
Serotonin 2b (5-HT2b) receptor

>  <target_chembl_id>  (670) 
CHEMBL1833

>  <target_organism>  (670) 
Homo sapiens

>  <pchembl_median>  (670) 
6.82

$$$$
CHEMBL4441621
     RDKit          2D

 23 26  0  0  0  0  0  0  0  0999 V2000
    2.5565   -7.4827    0.0000 C   0  0  0  0  0  0  0  0  0  0  0  0
    1.4418   -6.4791    0.0000 C   0  0  0  0  0  0  0  0  0  0  0  0
    0.0152   -6.9426    0.0000 O   0  0  0  0  0  0  0  0  0  0  0  0
    1.7537   -5.0118    0.0000 N   0  0  0  0  0  0  0  0  0  0  0  0
    3.1240   -4.4017    0.0000 C   0  0  0  0  0  0  0  0  0  0  0  0
    2.9672   -2.9099    0.0000 C   0  0  0  0  0  0  0  0  0  0  0  0
    1.5000   -2.5981    0.0000 C   0  0  0  0  0  0  0  0  0  0  0  0
    0.7500   -1.2990    0.0000 C   0  0  0  0  0  0  0  0  0  0  0  0
    1.5000    0.0000    0.0000 C   0  0  0  0  0  0  0  0  0  0  0  0
    0.7500    1.2990    0.0000 C   0  0  0  0  0  0  0  0  0  0  0  0
   -0.7500    1.2990    0.0000 C   0  0  0  0  0  0  0  0  0  0  0  0
   -1.5000    0.0000    0.0000 C   0  0  0  0  0  0  0  0  0  0  0  0
   -3.0000    0.0000    0.0000 C   0  0  0  0  0  0  0  0  0  0  0  0
   -3.7500    1.2990    0.0000 C   0  0  0  0  0  0  0  0  0  0  0  0
   -5.2500    1.2990    0.0000 C   0  0  0  0  0  0  0  0  0  0  0  0
   -6.0000    0.0000    0.0000 C   0  0  0  0  0  0  0  0  0  0  0  0
   -5.2500   -1.2990    0.0000 C   0  0  0  0  0  0  0  0  0  0  0  0
   -3.7500   -1.2990    0.0000 C   0  0  0  0  0  0  0  0  0  0  0  0
   -0.7500   -1.2990    0.0000 C   0  0  0  0  0  0  0  0  0  0  0  0
   -1.5000   -2.5981    0.0000 O   0  0  0  0  0  0  0  0  0  0  0  0
   -0.7500   -3.8971    0.0000 C   0  0  0  0  0  0  0  0  0  0  0  0
    0.7500   -3.8971    0.0000 C   0  0  0  0  0  0  0  0  0  0  0  0
    0.1399   -5.2674    0.0000 C   0  0  0  0  0  0  0  0  0  0  0  0
  1  2  1  0
  2  3  2  0
  2  4  1  0
  4  5  1  0
  5  6  1  0
  7  6  1  6
  7  8  1  0
  8  9  2  0
  9 10  1  0
 10 11  2  0
 11 12  1  0
 12 13  1  0
 13 14  2  0
 14 15  1  0
 15 16  2  0
 16 17  1  0
 17 18  2  0
 12 19  2  0
 19 20  1  0
 20 21  1  0
 21 22  1  0
 22 23  1  1
 22  4  1  0
 22  7  1  0
 19  8  1  0
 18 13  1  0
M  END
>  <assay_chembl_id>  (671) 
CHEMBL4308609

>  <assay_description>  (671) 
Displacement of [3H]-LSD from human recombinant 5-HT2B receptor stably expressed in HEK cells after 90 mins by microbeta scintillation counting method

>  <parent_molecule_chembl_id>  (671) 
CHEMBL4441621

>  <canonical_smiles>  (671) 
CC(=O)N1CC[C@H]2c3cccc(-c4ccccc4)c3OC[C@]21C

>  <standard_type>  (671) 
Ki

>  <standard_relation>  (671) 
=

>  <standard_value>  (671) 
501.19

>  <standard_units>  (671) 
nM

>  <target_pref_name>  (671) 
Serotonin 2b (5-HT2b) receptor

>  <target_chembl_id>  (671) 
CHEMBL1833

>  <target_organism>  (671) 
Homo sapiens

>  <pchembl_median>  (671) 
6.26

$$$$
CHEMBL4464697
     RDKit          2D

 15 17  0  0  0  0  0  0  0  0999 V2000
   -2.4026    0.1399    0.0000 C   0  0  0  0  0  0  0  0  0  0  0  0
   -1.0323    0.7500    0.0000 C   0  0  0  0  0  0  0  0  0  0  0  0
   -2.1470    1.7537    0.0000 C   0  0  0  0  0  0  0  0  0  0  0  0
   -1.8351    3.2209    0.0000 O   0  0  0  0  0  0  0  0  0  0  0  0
   -0.4086    3.6844    0.0000 C   0  0  0  0  0  0  0  0  0  0  0  0
   -0.0967    5.1517    0.0000 C   0  0  0  0  0  0  0  0  0  0  0  0
   -1.2114    6.1554    0.0000 Br  0  0  0  0  0  0  0  0  0  0  0  0
    1.3299    5.6152    0.0000 C   0  0  0  0  0  0  0  0  0  0  0  0
    2.4446    4.6115    0.0000 C   0  0  0  0  0  0  0  0  0  0  0  0
    2.1328    3.1443    0.0000 C   0  0  0  0  0  0  0  0  0  0  0  0
    0.7062    2.6807    0.0000 C   0  0  0  0  0  0  0  0  0  0  0  0
    0.3943    1.2135    0.0000 C   0  0  0  0  0  0  0  0  0  0  0  0
    1.2760    0.0000    0.0000 C   0  0  0  0  0  0  0  0  0  0  0  0
    0.3943   -1.2135    0.0000 C   0  0  0  0  0  0  0  0  0  0  0  0
   -1.0323   -0.7500    0.0000 N   0  0  0  0  0  0  0  0  0  0  0  0
  2  1  1  1
  2  3  1  0
  3  4  1  0
  4  5  1  0
  5  6  2  0
  6  7  1  0
  6  8  1  0
  8  9  2  0
  9 10  1  0
 10 11  2  0
 11 12  1  0
 12 13  1  6
 13 14  1  0
 14 15  1  0
 12  2  1  0
 15  2  1  0
 11  5  1  0
M  END
>  <assay_chembl_id>  (672) 
CHEMBL4308609

>  <assay_description>  (672) 
Displacement of [3H]-LSD from human recombinant 5-HT2B receptor stably expressed in HEK cells after 90 mins by microbeta scintillation counting method

>  <parent_molecule_chembl_id>  (672) 
CHEMBL4464697

>  <canonical_smiles>  (672) 
C[C@@]12COc3c(Br)cccc3[C@@H]1CCN2

>  <standard_type>  (672) 
Ki

>  <standard_relation>  (672) 
=

>  <standard_value>  (672) 
19.95

>  <standard_units>  (672) 
nM

>  <target_pref_name>  (672) 
Serotonin 2b (5-HT2b) receptor

>  <target_chembl_id>  (672) 
CHEMBL1833

>  <target_organism>  (672) 
Homo sapiens

>  <pchembl_median>  (672) 
6.74

$$$$
CHEMBL4459009
     RDKit          2D

 21 24  0  0  0  0  0  0  0  0999 V2000
    1.4418   -6.4791    0.0000 C   0  0  0  0  0  0  0  0  0  0  0  0
    1.7537   -5.0118    0.0000 N   0  0  0  0  0  0  0  0  0  0  0  0
    3.1240   -4.4017    0.0000 C   0  0  0  0  0  0  0  0  0  0  0  0
    2.9672   -2.9099    0.0000 C   0  0  0  0  0  0  0  0  0  0  0  0
    1.5000   -2.5981    0.0000 C   0  0  0  0  0  0  0  0  0  0  0  0
    0.7500   -1.2990    0.0000 C   0  0  0  0  0  0  0  0  0  0  0  0
    1.5000    0.0000    0.0000 C   0  0  0  0  0  0  0  0  0  0  0  0
    0.7500    1.2990    0.0000 C   0  0  0  0  0  0  0  0  0  0  0  0
   -0.7500    1.2990    0.0000 C   0  0  0  0  0  0  0  0  0  0  0  0
   -1.5000    0.0000    0.0000 C   0  0  0  0  0  0  0  0  0  0  0  0
   -0.7500   -1.2990    0.0000 C   0  0  0  0  0  0  0  0  0  0  0  0
   -1.5000   -2.5981    0.0000 N   0  0  0  0  0  0  0  0  0  0  0  0
   -3.0000   -2.5981    0.0000 C   0  0  0  0  0  0  0  0  0  0  0  0
   -3.7500   -1.2990    0.0000 C   0  0  0  0  0  0  0  0  0  0  0  0
   -5.2500   -1.2990    0.0000 C   0  0  0  0  0  0  0  0  0  0  0  0
   -6.0000   -2.5981    0.0000 C   0  0  0  0  0  0  0  0  0  0  0  0
   -5.2500   -3.8971    0.0000 C   0  0  0  0  0  0  0  0  0  0  0  0
   -3.7500   -3.8971    0.0000 C   0  0  0  0  0  0  0  0  0  0  0  0
   -0.7500   -3.8971    0.0000 C   0  0  0  0  0  0  0  0  0  0  0  0
    0.7500   -3.8971    0.0000 C   0  0  0  0  0  0  0  0  0  0  0  0
    0.1399   -5.2674    0.0000 C   0  0  0  0  0  0  0  0  0  0  0  0
  1  2  1  0
  2  3  1  0
  3  4  1  0
  5  4  1  6
  5  6  1  0
  6  7  2  0
  7  8  1  0
  8  9  2  0
  9 10  1  0
 10 11  2  0
 11 12  1  0
 12 13  1  0
 13 14  2  0
 14 15  1  0
 15 16  2  0
 16 17  1  0
 17 18  2  0
 12 19  1  0
 19 20  1  0
 20 21  1  1
 20  2  1  0
 20  5  1  0
 11  6  1  0
 18 13  1  0
M  END
>  <assay_chembl_id>  (673) 
CHEMBL4308609

>  <assay_description>  (673) 
Displacement of [3H]-LSD from human recombinant 5-HT2B receptor stably expressed in HEK cells after 90 mins by microbeta scintillation counting method

>  <parent_molecule_chembl_id>  (673) 
CHEMBL4459009

>  <canonical_smiles>  (673) 
CN1CC[C@H]2c3ccccc3N(c3ccccc3)C[C@]21C

>  <standard_type>  (673) 
Ki

>  <standard_relation>  (673) 
=

>  <standard_value>  (673) 
199.53

>  <standard_units>  (673) 
nM

>  <target_pref_name>  (673) 
Serotonin 2b (5-HT2b) receptor

>  <target_chembl_id>  (673) 
CHEMBL1833

>  <target_organism>  (673) 
Homo sapiens

>  <pchembl_median>  (673) 
5.8

$$$$
CHEMBL4476396
     RDKit          2D

 22 25  0  0  0  0  0  0  0  0999 V2000
    0.8389    9.5533    0.0000 C   0  0  0  0  0  0  0  0  0  0  0  0
    0.5271    8.0861    0.0000 C   0  0  0  0  0  0  0  0  0  0  0  0
    1.6418    7.0824    0.0000 C   0  0  0  0  0  0  0  0  0  0  0  0
    1.3299    5.6152    0.0000 C   0  0  0  0  0  0  0  0  0  0  0  0
   -0.0967    5.1517    0.0000 C   0  0  0  0  0  0  0  0  0  0  0  0
   -0.4086    3.6844    0.0000 N   0  0  0  0  0  0  0  0  0  0  0  0
    0.7062    2.6807    0.0000 C   0  0  0  0  0  0  0  0  0  0  0  0
    0.3943    1.2135    0.0000 C   0  0  0  0  0  0  0  0  0  0  0  0
    1.8615    1.5254    0.0000 C   0  0  0  0  0  0  0  0  0  0  0  0
    1.2760    0.0000    0.0000 N   0  0  0  0  0  0  0  0  0  0  0  0
    0.3943   -1.2135    0.0000 C   0  0  0  0  0  0  0  0  0  0  0  0
   -1.0323   -0.7500    0.0000 C   0  0  0  0  0  0  0  0  0  0  0  0
   -1.0323    0.7500    0.0000 C   0  0  0  0  0  0  0  0  0  0  0  0
   -2.1470    1.7537    0.0000 C   0  0  0  0  0  0  0  0  0  0  0  0
   -3.5736    1.2902    0.0000 C   0  0  0  0  0  0  0  0  0  0  0  0
   -4.6883    2.2939    0.0000 C   0  0  0  0  0  0  0  0  0  0  0  0
   -6.1149    1.8303    0.0000 C   0  0  0  0  0  0  0  0  0  0  0  0
   -4.3764    3.7611    0.0000 C   0  0  0  0  0  0  0  0  0  0  0  0
   -2.9499    4.2246    0.0000 C   0  0  0  0  0  0  0  0  0  0  0  0
   -1.8351    3.2209    0.0000 C   0  0  0  0  0  0  0  0  0  0  0  0
   -1.2114    6.1554    0.0000 C   0  0  0  0  0  0  0  0  0  0  0  0
   -0.8995    7.6226    0.0000 C   0  0  0  0  0  0  0  0  0  0  0  0
  1  2  1  0
  2  3  2  0
  3  4  1  0
  4  5  2  0
  5  6  1  0
  6  7  1  0
  7  8  1  0
  8  9  1  6
  8 10  1  0
 10 11  1  0
 11 12  1  0
 13 12  1  1
 13 14  1  0
 14 15  2  0
 15 16  1  0
 16 17  1  0
 16 18  2  0
 18 19  1  0
 19 20  2  0
  5 21  1  0
 21 22  2  0
 22  2  1  0
 20  6  1  0
 13  8  1  0
 20 14  1  0
M  END
>  <assay_chembl_id>  (674) 
CHEMBL4308609

>  <assay_description>  (674) 
Displacement of [3H]-LSD from human recombinant 5-HT2B receptor stably expressed in HEK cells after 90 mins by microbeta scintillation counting method

>  <parent_molecule_chembl_id>  (674) 
CHEMBL4476396

>  <canonical_smiles>  (674) 
Cc1ccc(N2C[C@@]3(C)NCC[C@H]3c3cc(C)ccc32)cc1

>  <standard_type>  (674) 
Ki

>  <standard_relation>  (674) 
=

>  <standard_value>  (674) 
316.23

>  <standard_units>  (674) 
nM

>  <target_pref_name>  (674) 
Serotonin 2b (5-HT2b) receptor

>  <target_chembl_id>  (674) 
CHEMBL1833

>  <target_organism>  (674) 
Homo sapiens

>  <pchembl_median>  (674) 
6.77

$$$$
CHEMBL4591108
     RDKit          2D

 22 25  0  0  0  0  0  0  0  0999 V2000
   -2.4026    0.1399    0.0000 C   0  0  0  0  0  0  0  0  0  0  0  0
   -1.0323    0.7500    0.0000 C   0  0  0  0  0  0  0  0  0  0  0  0
   -2.1470    1.7537    0.0000 C   0  0  0  0  0  0  0  0  0  0  0  0
   -1.8351    3.2209    0.0000 N   0  0  0  0  0  0  0  0  0  0  0  0
   -2.9499    4.2246    0.0000 C   0  0  0  0  0  0  0  0  0  0  0  0
   -2.6380    5.6918    0.0000 C   0  0  0  0  0  0  0  0  0  0  0  0
   -3.7527    6.6955    0.0000 C   0  0  0  0  0  0  0  0  0  0  0  0
   -5.1793    6.2320    0.0000 C   0  0  0  0  0  0  0  0  0  0  0  0
   -6.2940    7.2357    0.0000 Br  0  0  0  0  0  0  0  0  0  0  0  0
   -5.4912    4.7648    0.0000 C   0  0  0  0  0  0  0  0  0  0  0  0
   -4.3764    3.7611    0.0000 C   0  0  0  0  0  0  0  0  0  0  0  0
   -0.4086    3.6844    0.0000 C   0  0  0  0  0  0  0  0  0  0  0  0
   -0.0967    5.1517    0.0000 C   0  0  0  0  0  0  0  0  0  0  0  0
    1.3299    5.6152    0.0000 C   0  0  0  0  0  0  0  0  0  0  0  0
    2.4446    4.6115    0.0000 C   0  0  0  0  0  0  0  0  0  0  0  0
    3.8712    5.0750    0.0000 Br  0  0  0  0  0  0  0  0  0  0  0  0
    2.1328    3.1443    0.0000 C   0  0  0  0  0  0  0  0  0  0  0  0
    0.7062    2.6807    0.0000 C   0  0  0  0  0  0  0  0  0  0  0  0
    0.3943    1.2135    0.0000 C   0  0  0  0  0  0  0  0  0  0  0  0
    1.2760    0.0000    0.0000 C   0  0  0  0  0  0  0  0  0  0  0  0
    0.3943   -1.2135    0.0000 C   0  0  0  0  0  0  0  0  0  0  0  0
   -1.0323   -0.7500    0.0000 N   0  0  0  0  0  0  0  0  0  0  0  0
  2  1  1  1
  2  3  1  0
  3  4  1  0
  4  5  1  0
  5  6  2  0
  6  7  1  0
  7  8  2  0
  8  9  1  0
  8 10  1  0
 10 11  2  0
  4 12  1  0
 12 13  2  0
 13 14  1  0
 14 15  2  0
 15 16  1  0
 15 17  1  0
 17 18  2  0
 18 19  1  0
 19 20  1  6
 20 21  1  0
 21 22  1  0
 19  2  1  0
 22  2  1  0
 11  5  1  0
 18 12  1  0
M  END
>  <assay_chembl_id>  (675) 
CHEMBL4308609

>  <assay_description>  (675) 
Displacement of [3H]-LSD from human recombinant 5-HT2B receptor stably expressed in HEK cells after 90 mins by microbeta scintillation counting method

>  <parent_molecule_chembl_id>  (675) 
CHEMBL4591108

>  <canonical_smiles>  (675) 
C[C@@]12CN(c3ccc(Br)cc3)c3ccc(Br)cc3[C@@H]1CCN2

>  <standard_type>  (675) 
Ki

>  <standard_relation>  (675) 
=

>  <standard_value>  (675) 
316.23

>  <standard_units>  (675) 
nM

>  <target_pref_name>  (675) 
Serotonin 2b (5-HT2b) receptor

>  <target_chembl_id>  (675) 
CHEMBL1833

>  <target_organism>  (675) 
Homo sapiens

>  <pchembl_median>  (675) 
7.92

$$$$
CHEMBL4471059
     RDKit          2D

 31 32  0  0  0  0  0  0  0  0999 V2000
    4.0000    0.0000    0.0000 Cl  0  0  0  0  0  0  0  0  0  0  0  0
    5.0000    0.0000    0.0000 Cl  0  0  0  0  0  0  0  0  0  0  0  0
    3.0000   -2.5981    0.0000 O   0  0  0  0  0  0  0  0  0  0  0  0
    1.5000   -2.5981    0.0000 C   0  0  0  0  0  0  0  0  0  0  0  0
    0.7500   -1.2990    0.0000 C   0  0  0  0  0  0  0  0  0  0  0  0
    1.5000    0.0000    0.0000 C   0  0  0  0  0  0  0  0  0  0  0  0
    0.7500    1.2990    0.0000 C   0  0  0  0  0  0  0  0  0  0  0  0
    1.5000    2.5981    0.0000 Cl  0  0  0  0  0  0  0  0  0  0  0  0
   -0.7500    1.2990    0.0000 C   0  0  0  0  0  0  0  0  0  0  0  0
   -1.5000    0.0000    0.0000 C   0  0  0  0  0  0  0  0  0  0  0  0
   -0.7500   -1.2990    0.0000 C   0  0  0  0  0  0  0  0  0  0  0  0
   -1.5000   -2.5981    0.0000 O   0  0  0  0  0  0  0  0  0  0  0  0
   -0.7500   -3.8971    0.0000 C   0  0  0  0  0  0  0  0  0  0  0  0
   -1.5000   -5.1962    0.0000 C   0  0  0  0  0  0  0  0  0  0  0  0
   -0.7500   -6.4952    0.0000 C   0  0  0  0  0  0  0  0  0  0  0  0
    0.7500   -6.4952    0.0000 C   0  0  0  0  0  0  0  0  0  0  0  0
    1.5000   -7.7942    0.0000 C   0  0  0  0  0  0  0  0  0  0  0  0
    0.7500   -9.0933    0.0000 N   0  0  0  0  0  0  0  0  0  0  0  0
   -0.7500   -9.0933    0.0000 C   0  0  0  0  0  0  0  0  0  0  0  0
   -1.5000  -10.3923    0.0000 C   0  0  0  0  0  0  0  0  0  0  0  0
   -0.7500  -11.6913    0.0000 N   0  0  0  0  0  0  0  0  0  0  0  0
   -1.5000  -12.9904    0.0000 C   0  0  0  0  0  0  0  0  0  0  0  0
   -3.0000  -12.9904    0.0000 C   0  0  0  0  0  0  0  0  0  0  0  0
   -3.7500  -14.2894    0.0000 O   0  0  0  0  0  0  0  0  0  0  0  0
   -5.2500  -14.2894    0.0000 C   0  0  0  0  0  0  0  0  0  0  0  0
   -6.0000  -15.5885    0.0000 C   0  0  0  0  0  0  0  0  0  0  0  0
   -7.5000  -15.5885    0.0000 O   0  0  0  0  0  0  0  0  0  0  0  0
    0.7500  -11.6913    0.0000 C   0  0  0  0  0  0  0  0  0  0  0  0
    1.5000  -10.3923    0.0000 C   0  0  0  0  0  0  0  0  0  0  0  0
    1.5000   -5.1962    0.0000 C   0  0  0  0  0  0  0  0  0  0  0  0
    0.7500   -3.8971    0.0000 C   0  0  0  0  0  0  0  0  0  0  0  0
  3  4  2  0
  4  5  1  0
  5  6  2  0
  6  7  1  0
  7  8  1  0
  7  9  2  0
  9 10  1  0
 10 11  2  0
 11 12  1  0
 12 13  1  0
 13 14  2  0
 14 15  1  0
 15 16  2  0
 16 17  1  0
 17 18  1  0
 18 19  1  0
 19 20  1  0
 20 21  1  0
 21 22  1  0
 22 23  1  0
 23 24  1  0
 24 25  1  0
 25 26  1  0
 26 27  1  0
 21 28  1  0
 28 29  1  0
 16 30  1  0
 30 31  2  0
 31  4  1  0
 11  5  1  0
 31 13  1  0
 29 18  1  0
M  END
>  <assay_chembl_id>  (676) 
CHEMBL4368620

>  <assay_description>  (676) 
Displacement of [125I](+/-)DOI from recombinant human 5-HT2B receptor after 60 mins by radiometric scintillation analysis

>  <parent_molecule_chembl_id>  (676) 
CHEMBL4596904

>  <canonical_smiles>  (676) 
Cl.Cl.O=c1c2cc(Cl)ccc2oc2ccc(CN3CCN(CCOCCO)CC3)cc12

>  <standard_type>  (676) 
Ki

>  <standard_relation>  (676) 
=

>  <standard_value>  (676) 
2900.0

>  <standard_units>  (676) 
nM

>  <target_pref_name>  (676) 
Serotonin 2b (5-HT2b) receptor

>  <target_chembl_id>  (676) 
CHEMBL1833

>  <target_organism>  (676) 
Homo sapiens

>  <pchembl_median>  (676) 
5.6

$$$$
CHEMBL4581568
     RDKit          2D

 28 31  0  0  0  0  0  0  0  0999 V2000
  -10.5738    5.8451    0.0000 O   0  0  0  0  0  0  0  0  0  0  0  0
   -9.4590    4.8414    0.0000 C   0  0  0  0  0  0  0  0  0  0  0  0
   -8.0325    5.3050    0.0000 C   0  0  0  0  0  0  0  0  0  0  0  0
   -6.9177    4.3013    0.0000 C   0  0  0  0  0  0  0  0  0  0  0  0
   -7.2296    2.8340    0.0000 C   0  0  0  0  0  0  0  0  0  0  0  0
   -6.1149    1.8303    0.0000 C   0  0  0  0  0  0  0  0  0  0  0  0
   -4.6883    2.2939    0.0000 C   0  0  0  0  0  0  0  0  0  0  0  0
   -3.5736    1.2902    0.0000 N   0  0  0  0  0  0  0  0  0  0  0  0
   -2.1470    1.7537    0.0000 C   0  0  0  0  0  0  0  0  0  0  0  0
   -1.8351    3.2209    0.0000 N   0  0  0  0  0  0  0  0  0  0  0  0
   -0.4086    3.6844    0.0000 C   0  0  0  0  0  0  0  0  0  0  0  0
   -0.0967    5.1517    0.0000 C   0  0  0  0  0  0  0  0  0  0  0  0
    0.2152    6.6189    0.0000 C   0  0  0  0  0  0  0  0  0  0  0  0
    0.5271    8.0861    0.0000 C   0  0  0  0  0  0  0  0  0  0  0  0
   -0.4766    9.2008    0.0000 C   0  0  0  0  0  0  0  0  0  0  0  0
    0.2734   10.4999    0.0000 C   0  0  0  0  0  0  0  0  0  0  0  0
    1.7406   10.1880    0.0000 C   0  0  0  0  0  0  0  0  0  0  0  0
    2.8553   11.1917    0.0000 Cl  0  0  0  0  0  0  0  0  0  0  0  0
    1.8974    8.6962    0.0000 S   0  0  0  0  0  0  0  0  0  0  0  0
    0.7062    2.6807    0.0000 N   0  0  0  0  0  0  0  0  0  0  0  0
    0.3943    1.2135    0.0000 C   0  0  0  0  0  0  0  0  0  0  0  0
    1.2760    0.0000    0.0000 N   0  0  0  0  0  0  0  0  0  0  0  0
    0.3943   -1.2135    0.0000 C   0  0  0  0  0  0  0  0  0  0  0  0
   -1.0323   -0.7500    0.0000 N   0  0  0  0  0  0  0  0  0  0  0  0
   -1.0323    0.7500    0.0000 C   0  0  0  0  0  0  0  0  0  0  0  0
   -8.6562    2.3705    0.0000 C   0  0  0  0  0  0  0  0  0  0  0  0
   -9.7709    3.3742    0.0000 C   0  0  0  0  0  0  0  0  0  0  0  0
  -11.1975    2.9107    0.0000 O   0  0  0  0  0  0  0  0  0  0  0  0
  1  2  1  0
  2  3  2  0
  3  4  1  0
  4  5  2  0
  5  6  1  0
  6  7  1  0
  7  8  1  0
  8  9  1  0
  9 10  2  0
 10 11  1  0
 11 12  1  0
 12 13  3  0
 13 14  1  0
 14 15  2  0
 15 16  1  0
 16 17  2  0
 17 18  1  0
 17 19  1  0
 11 20  2  0
 20 21  1  0
 21 22  1  0
 22 23  1  0
 23 24  2  0
 24 25  1  0
  5 26  1  0
 26 27  2  0
 27 28  1  0
 27  2  1  0
 25  9  1  0
 19 14  1  0
 25 21  2  0
M  END
>  <assay_chembl_id>  (677) 
CHEMBL4369177

>  <assay_description>  (677) 
Displacement of [3H]-LSD from human 5-HT2B receptor expressed in HEK cell by radioligand binding assay

>  <parent_molecule_chembl_id>  (677) 
CHEMBL4581568

>  <canonical_smiles>  (677) 
Oc1ccc(CCNc2nc(C#Cc3ccc(Cl)s3)nc3[nH]cnc23)cc1O

>  <standard_type>  (677) 
Ki

>  <standard_relation>  (677) 
=

>  <standard_value>  (677) 
1210.0

>  <standard_units>  (677) 
nM

>  <target_pref_name>  (677) 
Serotonin 2b (5-HT2b) receptor

>  <target_chembl_id>  (677) 
CHEMBL1833

>  <target_organism>  (677) 
Homo sapiens

>  <pchembl_median>  (677) 
8.7

$$$$
CHEMBL4587951
     RDKit          2D

 24 27  0  0  0  0  0  0  0  0999 V2000
   -3.2325    4.5356    0.0000 O   0  0  0  0  0  0  0  0  0  0  0  0
   -4.5315    3.7856    0.0000 C   0  0  0  0  0  0  0  0  0  0  0  0
   -5.9018    4.3958    0.0000 C   0  0  0  0  0  0  0  0  0  0  0  0
   -6.9055    3.2810    0.0000 C   0  0  0  0  0  0  0  0  0  0  0  0
   -6.1555    1.9820    0.0000 C   0  0  0  0  0  0  0  0  0  0  0  0
   -4.6883    2.2939    0.0000 C   0  0  0  0  0  0  0  0  0  0  0  0
   -3.5736    1.2902    0.0000 N   0  0  0  0  0  0  0  0  0  0  0  0
   -2.1470    1.7537    0.0000 C   0  0  0  0  0  0  0  0  0  0  0  0
   -1.8351    3.2209    0.0000 N   0  0  0  0  0  0  0  0  0  0  0  0
   -0.4086    3.6844    0.0000 C   0  0  0  0  0  0  0  0  0  0  0  0
   -0.0967    5.1517    0.0000 C   0  0  0  0  0  0  0  0  0  0  0  0
    0.2152    6.6189    0.0000 C   0  0  0  0  0  0  0  0  0  0  0  0
    0.5271    8.0861    0.0000 C   0  0  0  0  0  0  0  0  0  0  0  0
   -0.4766    9.2008    0.0000 C   0  0  0  0  0  0  0  0  0  0  0  0
    0.2734   10.4999    0.0000 C   0  0  0  0  0  0  0  0  0  0  0  0
    1.7406   10.1880    0.0000 C   0  0  0  0  0  0  0  0  0  0  0  0
    2.8553   11.1917    0.0000 Cl  0  0  0  0  0  0  0  0  0  0  0  0
    1.8974    8.6962    0.0000 S   0  0  0  0  0  0  0  0  0  0  0  0
    0.7062    2.6807    0.0000 N   0  0  0  0  0  0  0  0  0  0  0  0
    0.3943    1.2135    0.0000 C   0  0  0  0  0  0  0  0  0  0  0  0
    1.2760    0.0000    0.0000 N   0  0  0  0  0  0  0  0  0  0  0  0
    0.3943   -1.2135    0.0000 C   0  0  0  0  0  0  0  0  0  0  0  0
   -1.0323   -0.7500    0.0000 N   0  0  0  0  0  0  0  0  0  0  0  0
   -1.0323    0.7500    0.0000 C   0  0  0  0  0  0  0  0  0  0  0  0
  2  1  1  6
  2  3  1  0
  3  4  1  0
  4  5  1  0
  5  6  1  0
  6  7  1  1
  7  8  1  0
  8  9  2  0
  9 10  1  0
 10 11  1  0
 11 12  3  0
 12 13  1  0
 13 14  2  0
 14 15  1  0
 15 16  2  0
 16 17  1  0
 16 18  1  0
 10 19  2  0
 19 20  1  0
 20 21  1  0
 21 22  1  0
 22 23  2  0
 23 24  1  0
  6  2  1  0
 24  8  1  0
 18 13  1  0
 24 20  2  0
M  END
>  <assay_chembl_id>  (678) 
CHEMBL4369177

>  <assay_description>  (678) 
Displacement of [3H]-LSD from human 5-HT2B receptor expressed in HEK cell by radioligand binding assay

>  <parent_molecule_chembl_id>  (678) 
CHEMBL4587951

>  <canonical_smiles>  (678) 
O[C@H]1CCC[C@@H]1Nc1nc(C#Cc2ccc(Cl)s2)nc2[nH]cnc12

>  <standard_type>  (678) 
Ki

>  <standard_relation>  (678) 
=

>  <standard_value>  (678) 
1860.0

>  <standard_units>  (678) 
nM

>  <target_pref_name>  (678) 
Serotonin 2b (5-HT2b) receptor

>  <target_chembl_id>  (678) 
CHEMBL1833

>  <target_organism>  (678) 
Homo sapiens

>  <pchembl_median>  (678) 
7.82

$$$$
CHEMBL4580763
     RDKit          2D

 33 36  0  0  0  0  0  0  0  0999 V2000
    5.2500   -6.4952    0.0000 C   0  0  0  0  0  0  0  0  0  0  0  0
    3.7500   -6.4952    0.0000 C   0  0  0  0  0  0  0  0  0  0  0  0
    3.0000   -5.1962    0.0000 C   0  0  0  0  0  0  0  0  0  0  0  0
    1.5000   -5.1962    0.0000 N   0  0  0  0  0  0  0  0  0  0  0  0
    0.7500   -6.4952    0.0000 C   0  0  0  0  0  0  0  0  0  0  0  0
   -0.7500   -6.4952    0.0000 C   0  0  0  0  0  0  0  0  0  0  0  0
   -1.5000   -5.1962    0.0000 C   0  0  0  0  0  0  0  0  0  0  0  0
   -3.0000   -5.1962    0.0000 C   0  0  0  0  0  0  0  0  0  0  0  0
   -3.7500   -3.8971    0.0000 C   0  0  0  0  0  0  0  0  0  0  0  0
   -5.2500   -3.8971    0.0000 O   0  0  0  0  0  0  0  0  0  0  0  0
   -6.0000   -2.5981    0.0000 C   0  0  0  0  0  0  0  0  0  0  0  0
   -3.0000   -2.5981    0.0000 C   0  0  0  0  0  0  0  0  0  0  0  0
   -1.5000   -2.5981    0.0000 C   0  0  0  0  0  0  0  0  0  0  0  0
   -0.7500   -3.8971    0.0000 C   0  0  0  0  0  0  0  0  0  0  0  0
    0.7500   -3.8971    0.0000 C   0  0  0  0  0  0  0  0  0  0  0  0
    1.5000   -2.5981    0.0000 C   0  0  0  0  0  0  0  0  0  0  0  0
    0.7500   -1.2990    0.0000 C   0  0  0  0  0  0  0  0  0  0  0  0
    1.5000    0.0000    0.0000 C   0  0  0  0  0  0  0  0  0  0  0  0
    0.7500    1.2990    0.0000 C   0  0  0  0  0  0  0  0  0  0  0  0
   -0.7500    1.2990    0.0000 C   0  0  0  0  0  0  0  0  0  0  0  0
   -1.5000    0.0000    0.0000 C   0  0  0  0  0  0  0  0  0  0  0  0
   -3.0000    0.0000    0.0000 O   0  0  0  0  0  0  0  0  0  0  0  0
   -3.7500    1.2990    0.0000 C   0  0  0  0  0  0  0  0  0  0  0  0
   -3.0000    2.5981    0.0000 O   0  0  0  0  0  0  0  0  0  0  0  0
   -5.2500    1.2990    0.0000 C   0  0  0  0  0  0  0  0  0  0  0  0
   -6.0000    2.5981    0.0000 C   0  0  0  0  0  0  0  0  0  0  0  0
   -7.5000    2.5981    0.0000 C   0  0  0  0  0  0  0  0  0  0  0  0
   -8.2500    1.2990    0.0000 C   0  0  0  0  0  0  0  0  0  0  0  0
   -9.7500    1.2990    0.0000 F   0  0  0  0  0  0  0  0  0  0  0  0
   -7.5000    0.0000    0.0000 C   0  0  0  0  0  0  0  0  0  0  0  0
   -6.0000    0.0000    0.0000 C   0  0  0  0  0  0  0  0  0  0  0  0
   -0.7500   -1.2990    0.0000 C   0  0  0  0  0  0  0  0  0  0  0  0
    0.0000    3.5981    0.0000 Cl  0  0  0  0  0  0  0  0  0  0  0  0
  1  2  1  0
  2  3  1  0
  3  4  1  0
  4  5  1  0
  5  6  1  0
  6  7  1  0
  7  8  2  0
  8  9  1  0
  9 10  1  0
 10 11  1  0
  9 12  2  0
 12 13  1  0
 13 14  2  0
 14 15  1  0
 15 16  1  1
 16 17  1  0
 17 18  2  0
 18 19  1  0
 19 20  2  0
 20 21  1  0
 21 22  1  0
 22 23  1  0
 23 24  2  0
 23 25  1  0
 25 26  2  0
 26 27  1  0
 27 28  2  0
 28 29  1  0
 28 30  1  0
 30 31  2  0
 21 32  2  0
 15  4  1  0
 32 17  1  0
 14  7  1  0
 31 25  1  0
 32 13  1  0
M  END
>  <assay_chembl_id>  (679) 
CHEMBL4372837

>  <assay_description>  (679) 
Displacement of [3H]LSD from 5HT2B receptor (unknown origin) expressed in HEK293 cell membranes

>  <parent_molecule_chembl_id>  (679) 
CHEMBL4597977

>  <canonical_smiles>  (679) 
CCCN1CCc2cc(OC)cc3c2[C@H]1Cc1cccc(OC(=O)c2ccc(F)cc2)c1-3.Cl

>  <standard_type>  (679) 
Ki

>  <standard_relation>  (679) 
=

>  <standard_value>  (679) 
106.0

>  <standard_units>  (679) 
nM

>  <target_pref_name>  (679) 
Serotonin 2b (5-HT2b) receptor

>  <target_chembl_id>  (679) 
CHEMBL1833

>  <target_organism>  (679) 
Homo sapiens

>  <pchembl_median>  (679) 
6.33

$$$$
CHEMBL4565350
     RDKit          2D

 27 29  0  0  0  0  0  0  0  0999 V2000
    5.2500   -6.4952    0.0000 C   0  0  0  0  0  0  0  0  0  0  0  0
    3.7500   -6.4952    0.0000 C   0  0  0  0  0  0  0  0  0  0  0  0
    3.0000   -5.1962    0.0000 C   0  0  0  0  0  0  0  0  0  0  0  0
    1.5000   -5.1962    0.0000 N   0  0  0  0  0  0  0  0  0  0  0  0
    0.7500   -6.4952    0.0000 C   0  0  0  0  0  0  0  0  0  0  0  0
   -0.7500   -6.4952    0.0000 C   0  0  0  0  0  0  0  0  0  0  0  0
   -1.5000   -5.1962    0.0000 C   0  0  0  0  0  0  0  0  0  0  0  0
   -3.0000   -5.1962    0.0000 C   0  0  0  0  0  0  0  0  0  0  0  0
   -3.7500   -3.8971    0.0000 C   0  0  0  0  0  0  0  0  0  0  0  0
   -5.2500   -3.8971    0.0000 O   0  0  0  0  0  0  0  0  0  0  0  0
   -6.0000   -2.5981    0.0000 C   0  0  0  0  0  0  0  0  0  0  0  0
   -3.0000   -2.5981    0.0000 C   0  0  0  0  0  0  0  0  0  0  0  0
   -1.5000   -2.5981    0.0000 C   0  0  0  0  0  0  0  0  0  0  0  0
   -0.7500   -3.8971    0.0000 C   0  0  0  0  0  0  0  0  0  0  0  0
    0.7500   -3.8971    0.0000 C   0  0  0  0  0  0  0  0  0  0  0  0
    1.5000   -2.5981    0.0000 C   0  0  0  0  0  0  0  0  0  0  0  0
    0.7500   -1.2990    0.0000 C   0  0  0  0  0  0  0  0  0  0  0  0
    1.5000    0.0000    0.0000 C   0  0  0  0  0  0  0  0  0  0  0  0
    0.7500    1.2990    0.0000 C   0  0  0  0  0  0  0  0  0  0  0  0
   -0.7500    1.2990    0.0000 C   0  0  0  0  0  0  0  0  0  0  0  0
   -1.5000    0.0000    0.0000 C   0  0  0  0  0  0  0  0  0  0  0  0
   -3.0000    0.0000    0.0000 O   0  0  0  0  0  0  0  0  0  0  0  0
   -3.7500    1.2990    0.0000 C   0  0  0  0  0  0  0  0  0  0  0  0
   -5.2500    1.2990    0.0000 C   0  0  0  0  0  0  0  0  0  0  0  0
   -6.0000    2.5981    0.0000 F   0  0  0  0  0  0  0  0  0  0  0  0
   -0.7500   -1.2990    0.0000 C   0  0  0  0  0  0  0  0  0  0  0  0
    0.0000    3.5981    0.0000 Cl  0  0  0  0  0  0  0  0  0  0  0  0
  1  2  1  0
  2  3  1  0
  3  4  1  0
  4  5  1  0
  5  6  1  0
  6  7  1  0
  7  8  2  0
  8  9  1  0
  9 10  1  0
 10 11  1  0
  9 12  2  0
 12 13  1  0
 13 14  2  0
 14 15  1  0
 15 16  1  1
 16 17  1  0
 17 18  2  0
 18 19  1  0
 19 20  2  0
 20 21  1  0
 21 22  1  0
 22 23  1  0
 23 24  1  0
 24 25  1  0
 21 26  2  0
 15  4  1  0
 26 17  1  0
 14  7  1  0
 26 13  1  0
M  END
>  <assay_chembl_id>  (680) 
CHEMBL4372837

>  <assay_description>  (680) 
Displacement of [3H]LSD from 5HT2B receptor (unknown origin) expressed in HEK293 cell membranes

>  <parent_molecule_chembl_id>  (680) 
CHEMBL4594672

>  <canonical_smiles>  (680) 
CCCN1CCc2cc(OC)cc3c2[C@H]1Cc1cccc(OCCF)c1-3.Cl

>  <standard_type>  (680) 
Ki

>  <standard_relation>  (680) 
=

>  <standard_value>  (680) 
3044.0

>  <standard_units>  (680) 
nM

>  <target_pref_name>  (680) 
Serotonin 2b (5-HT2b) receptor

>  <target_chembl_id>  (680) 
CHEMBL1833

>  <target_organism>  (680) 
Homo sapiens

>  <pchembl_median>  (680) 
7.9

$$$$
CHEMBL4569512
     RDKit          2D

 31 34  0  0  0  0  0  0  0  0999 V2000
   -6.0000   -2.5981    0.0000 C   0  0  0  0  0  0  0  0  0  0  0  0
   -5.2500   -3.8971    0.0000 O   0  0  0  0  0  0  0  0  0  0  0  0
   -3.7500   -3.8971    0.0000 C   0  0  0  0  0  0  0  0  0  0  0  0
   -3.0000   -5.1962    0.0000 C   0  0  0  0  0  0  0  0  0  0  0  0
   -1.5000   -5.1962    0.0000 C   0  0  0  0  0  0  0  0  0  0  0  0
   -0.7500   -3.8971    0.0000 C   0  0  0  0  0  0  0  0  0  0  0  0
   -1.5000   -2.5981    0.0000 C   0  0  0  0  0  0  0  0  0  0  0  0
   -3.0000   -2.5981    0.0000 C   0  0  0  0  0  0  0  0  0  0  0  0
   -0.7500   -1.2990    0.0000 C   0  0  0  0  0  0  0  0  0  0  0  0
    0.7500   -1.2990    0.0000 C   0  0  0  0  0  0  0  0  0  0  0  0
    1.5000    0.0000    0.0000 C   0  0  0  0  0  0  0  0  0  0  0  0
    0.7500    1.2990    0.0000 C   0  0  0  0  0  0  0  0  0  0  0  0
   -0.7500    1.2990    0.0000 C   0  0  0  0  0  0  0  0  0  0  0  0
   -1.5000    0.0000    0.0000 C   0  0  0  0  0  0  0  0  0  0  0  0
   -3.0000    0.0000    0.0000 O   0  0  0  0  0  0  0  0  0  0  0  0
   -3.7500    1.2990    0.0000 C   0  0  0  0  0  0  0  0  0  0  0  0
   -3.0000    2.5981    0.0000 O   0  0  0  0  0  0  0  0  0  0  0  0
   -5.2500    1.2990    0.0000 C   0  0  0  0  0  0  0  0  0  0  0  0
   -6.0000    2.5981    0.0000 C   0  0  0  0  0  0  0  0  0  0  0  0
   -7.5000    2.5981    0.0000 C   0  0  0  0  0  0  0  0  0  0  0  0
   -8.2500    1.2990    0.0000 C   0  0  0  0  0  0  0  0  0  0  0  0
   -9.7500    1.2990    0.0000 F   0  0  0  0  0  0  0  0  0  0  0  0
   -7.5000    0.0000    0.0000 C   0  0  0  0  0  0  0  0  0  0  0  0
   -6.0000    0.0000    0.0000 C   0  0  0  0  0  0  0  0  0  0  0  0
    1.5000   -2.5981    0.0000 C   0  0  0  0  0  0  0  0  0  0  0  0
    0.7500   -3.8971    0.0000 C   0  0  0  0  0  0  0  0  0  0  0  0
    1.5000   -5.1962    0.0000 N   0  0  0  0  0  0  0  0  0  0  0  0
    3.0000   -5.1962    0.0000 C   0  0  0  0  0  0  0  0  0  0  0  0
    0.7500   -6.4952    0.0000 C   0  0  0  0  0  0  0  0  0  0  0  0
   -0.7500   -6.4952    0.0000 C   0  0  0  0  0  0  0  0  0  0  0  0
    0.0000    3.5981    0.0000 Cl  0  0  0  0  0  0  0  0  0  0  0  0
  1  2  1  0
  2  3  1  0
  3  4  2  0
  4  5  1  0
  5  6  2  0
  6  7  1  0
  7  8  2  0
  7  9  1  0
  9 10  2  0
 10 11  1  0
 11 12  2  0
 12 13  1  0
 13 14  2  0
 14 15  1  0
 15 16  1  0
 16 17  2  0
 16 18  1  0
 18 19  2  0
 19 20  1  0
 20 21  2  0
 21 22  1  0
 21 23  1  0
 23 24  2  0
 10 25  1  0
 26 25  1  1
 26 27  1  0
 27 28  1  0
 27 29  1  0
 29 30  1  0
  8  3  1  0
 14  9  1  0
 24 18  1  0
 30  5  1  0
 26  6  1  0
M  END
>  <assay_chembl_id>  (681) 
CHEMBL4372837

>  <assay_description>  (681) 
Displacement of [3H]LSD from 5HT2B receptor (unknown origin) expressed in HEK293 cell membranes

>  <parent_molecule_chembl_id>  (681) 
CHEMBL4595010

>  <canonical_smiles>  (681) 
COc1cc2c3c(c1)-c1c(cccc1OC(=O)c1ccc(F)cc1)C[C@H]3N(C)CC2.Cl

>  <standard_type>  (681) 
Ki

>  <standard_relation>  (681) 
=

>  <standard_value>  (681) 
102.0

>  <standard_units>  (681) 
nM

>  <target_pref_name>  (681) 
Serotonin 2b (5-HT2b) receptor

>  <target_chembl_id>  (681) 
CHEMBL1833

>  <target_organism>  (681) 
Homo sapiens

>  <pchembl_median>  (681) 
7.5

$$$$
CHEMBL4436605
     RDKit          2D

 30 33  0  0  0  0  0  0  0  0999 V2000
   -6.0000   -2.5981    0.0000 C   0  0  0  0  0  0  0  0  0  0  0  0
   -5.2500   -3.8971    0.0000 O   0  0  0  0  0  0  0  0  0  0  0  0
   -3.7500   -3.8971    0.0000 C   0  0  0  0  0  0  0  0  0  0  0  0
   -3.0000   -5.1962    0.0000 C   0  0  0  0  0  0  0  0  0  0  0  0
   -1.5000   -5.1962    0.0000 C   0  0  0  0  0  0  0  0  0  0  0  0
   -0.7500   -3.8971    0.0000 C   0  0  0  0  0  0  0  0  0  0  0  0
   -1.5000   -2.5981    0.0000 C   0  0  0  0  0  0  0  0  0  0  0  0
   -3.0000   -2.5981    0.0000 C   0  0  0  0  0  0  0  0  0  0  0  0
   -0.7500   -1.2990    0.0000 C   0  0  0  0  0  0  0  0  0  0  0  0
    0.7500   -1.2990    0.0000 C   0  0  0  0  0  0  0  0  0  0  0  0
    1.5000    0.0000    0.0000 C   0  0  0  0  0  0  0  0  0  0  0  0
    0.7500    1.2990    0.0000 C   0  0  0  0  0  0  0  0  0  0  0  0
   -0.7500    1.2990    0.0000 C   0  0  0  0  0  0  0  0  0  0  0  0
   -1.5000    0.0000    0.0000 C   0  0  0  0  0  0  0  0  0  0  0  0
   -3.0000    0.0000    0.0000 O   0  0  0  0  0  0  0  0  0  0  0  0
   -3.7500    1.2990    0.0000 C   0  0  0  0  0  0  0  0  0  0  0  0
   -5.2500    1.2990    0.0000 C   0  0  0  0  0  0  0  0  0  0  0  0
   -6.0000    2.5981    0.0000 C   0  0  0  0  0  0  0  0  0  0  0  0
   -7.5000    2.5981    0.0000 C   0  0  0  0  0  0  0  0  0  0  0  0
   -8.2500    1.2990    0.0000 C   0  0  0  0  0  0  0  0  0  0  0  0
   -9.7500    1.2990    0.0000 F   0  0  0  0  0  0  0  0  0  0  0  0
   -7.5000    0.0000    0.0000 C   0  0  0  0  0  0  0  0  0  0  0  0
   -6.0000    0.0000    0.0000 C   0  0  0  0  0  0  0  0  0  0  0  0
    1.5000   -2.5981    0.0000 C   0  0  0  0  0  0  0  0  0  0  0  0
    0.7500   -3.8971    0.0000 C   0  0  0  0  0  0  0  0  0  0  0  0
    1.5000   -5.1962    0.0000 N   0  0  0  0  0  0  0  0  0  0  0  0
    3.0000   -5.1962    0.0000 C   0  0  0  0  0  0  0  0  0  0  0  0
    0.7500   -6.4952    0.0000 C   0  0  0  0  0  0  0  0  0  0  0  0
   -0.7500   -6.4952    0.0000 C   0  0  0  0  0  0  0  0  0  0  0  0
    0.0000    3.5981    0.0000 Cl  0  0  0  0  0  0  0  0  0  0  0  0
  1  2  1  0
  2  3  1  0
  3  4  2  0
  4  5  1  0
  5  6  2  0
  6  7  1  0
  7  8  2  0
  7  9  1  0
  9 10  2  0
 10 11  1  0
 11 12  2  0
 12 13  1  0
 13 14  2  0
 14 15  1  0
 15 16  1  0
 16 17  1  0
 17 18  2  0
 18 19  1  0
 19 20  2  0
 20 21  1  0
 20 22  1  0
 22 23  2  0
 10 24  1  0
 25 24  1  1
 25 26  1  0
 26 27  1  0
 26 28  1  0
 28 29  1  0
  8  3  1  0
 14  9  1  0
 23 17  1  0
 29  5  1  0
 25  6  1  0
M  END
>  <assay_chembl_id>  (682) 
CHEMBL4372837

>  <assay_description>  (682) 
Displacement of [3H]LSD from 5HT2B receptor (unknown origin) expressed in HEK293 cell membranes

>  <parent_molecule_chembl_id>  (682) 
CHEMBL4595241

>  <canonical_smiles>  (682) 
COc1cc2c3c(c1)-c1c(cccc1OCc1ccc(F)cc1)C[C@H]3N(C)CC2.Cl

>  <standard_type>  (682) 
Ki

>  <standard_relation>  (682) 
=

>  <standard_value>  (682) 
2681.0

>  <standard_units>  (682) 
nM

>  <target_pref_name>  (682) 
Serotonin 2b (5-HT2b) receptor

>  <target_chembl_id>  (682) 
CHEMBL1833

>  <target_organism>  (682) 
Homo sapiens

>  <pchembl_median>  (682) 
6.6

$$$$
CHEMBL4465663
     RDKit          2D

 26 28  0  0  0  0  0  0  0  0999 V2000
   -6.0000   -2.5981    0.0000 C   0  0  0  0  0  0  0  0  0  0  0  0
   -5.2500   -3.8971    0.0000 O   0  0  0  0  0  0  0  0  0  0  0  0
   -3.7500   -3.8971    0.0000 C   0  0  0  0  0  0  0  0  0  0  0  0
   -3.0000   -5.1962    0.0000 C   0  0  0  0  0  0  0  0  0  0  0  0
   -1.5000   -5.1962    0.0000 C   0  0  0  0  0  0  0  0  0  0  0  0
   -0.7500   -3.8971    0.0000 C   0  0  0  0  0  0  0  0  0  0  0  0
   -1.5000   -2.5981    0.0000 C   0  0  0  0  0  0  0  0  0  0  0  0
   -3.0000   -2.5981    0.0000 C   0  0  0  0  0  0  0  0  0  0  0  0
   -0.7500   -1.2990    0.0000 C   0  0  0  0  0  0  0  0  0  0  0  0
    0.7500   -1.2990    0.0000 C   0  0  0  0  0  0  0  0  0  0  0  0
    1.5000    0.0000    0.0000 C   0  0  0  0  0  0  0  0  0  0  0  0
    0.7500    1.2990    0.0000 C   0  0  0  0  0  0  0  0  0  0  0  0
   -0.7500    1.2990    0.0000 C   0  0  0  0  0  0  0  0  0  0  0  0
   -1.5000    0.0000    0.0000 C   0  0  0  0  0  0  0  0  0  0  0  0
   -3.0000    0.0000    0.0000 O   0  0  0  0  0  0  0  0  0  0  0  0
   -3.7500    1.2990    0.0000 C   0  0  0  0  0  0  0  0  0  0  0  0
   -5.2500    1.2990    0.0000 C   0  0  0  0  0  0  0  0  0  0  0  0
   -6.0000    2.5981    0.0000 C   0  0  0  0  0  0  0  0  0  0  0  0
   -7.5000    2.5981    0.0000 F   0  0  0  0  0  0  0  0  0  0  0  0
    1.5000   -2.5981    0.0000 C   0  0  0  0  0  0  0  0  0  0  0  0
    0.7500   -3.8971    0.0000 C   0  0  0  0  0  0  0  0  0  0  0  0
    1.5000   -5.1962    0.0000 N   0  0  0  0  0  0  0  0  0  0  0  0
    3.0000   -5.1962    0.0000 C   0  0  0  0  0  0  0  0  0  0  0  0
    0.7500   -6.4952    0.0000 C   0  0  0  0  0  0  0  0  0  0  0  0
   -0.7500   -6.4952    0.0000 C   0  0  0  0  0  0  0  0  0  0  0  0
    0.0000    3.5981    0.0000 Cl  0  0  0  0  0  0  0  0  0  0  0  0
  1  2  1  0
  2  3  1  0
  3  4  2  0
  4  5  1  0
  5  6  2  0
  6  7  1  0
  7  8  2  0
  7  9  1  0
  9 10  2  0
 10 11  1  0
 11 12  2  0
 12 13  1  0
 13 14  2  0
 14 15  1  0
 15 16  1  0
 16 17  1  0
 17 18  1  0
 18 19  1  0
 10 20  1  0
 21 20  1  1
 21 22  1  0
 22 23  1  0
 22 24  1  0
 24 25  1  0
  8  3  1  0
 14  9  1  0
 25  5  1  0
 21  6  1  0
M  END
>  <assay_chembl_id>  (683) 
CHEMBL4372837

>  <assay_description>  (683) 
Displacement of [3H]LSD from 5HT2B receptor (unknown origin) expressed in HEK293 cell membranes

>  <parent_molecule_chembl_id>  (683) 
CHEMBL4596016

>  <canonical_smiles>  (683) 
COc1cc2c3c(c1)-c1c(cccc1OCCCF)C[C@H]3N(C)CC2.Cl

>  <standard_type>  (683) 
Ki

>  <standard_relation>  (683) 
=

>  <standard_value>  (683) 
422.0

>  <standard_units>  (683) 
nM

>  <target_pref_name>  (683) 
Serotonin 2b (5-HT2b) receptor

>  <target_chembl_id>  (683) 
CHEMBL1833

>  <target_organism>  (683) 
Homo sapiens

>  <pchembl_median>  (683) 
5.88

$$$$
CHEMBL4482880
     RDKit          2D

 25 27  0  0  0  0  0  0  0  0999 V2000
   -6.0000   -2.5981    0.0000 C   0  0  0  0  0  0  0  0  0  0  0  0
   -5.2500   -3.8971    0.0000 O   0  0  0  0  0  0  0  0  0  0  0  0
   -3.7500   -3.8971    0.0000 C   0  0  0  0  0  0  0  0  0  0  0  0
   -3.0000   -5.1962    0.0000 C   0  0  0  0  0  0  0  0  0  0  0  0
   -1.5000   -5.1962    0.0000 C   0  0  0  0  0  0  0  0  0  0  0  0
   -0.7500   -3.8971    0.0000 C   0  0  0  0  0  0  0  0  0  0  0  0
   -1.5000   -2.5981    0.0000 C   0  0  0  0  0  0  0  0  0  0  0  0
   -3.0000   -2.5981    0.0000 C   0  0  0  0  0  0  0  0  0  0  0  0
   -0.7500   -1.2990    0.0000 C   0  0  0  0  0  0  0  0  0  0  0  0
    0.7500   -1.2990    0.0000 C   0  0  0  0  0  0  0  0  0  0  0  0
    1.5000    0.0000    0.0000 C   0  0  0  0  0  0  0  0  0  0  0  0
    0.7500    1.2990    0.0000 C   0  0  0  0  0  0  0  0  0  0  0  0
   -0.7500    1.2990    0.0000 C   0  0  0  0  0  0  0  0  0  0  0  0
   -1.5000    0.0000    0.0000 C   0  0  0  0  0  0  0  0  0  0  0  0
   -3.0000    0.0000    0.0000 O   0  0  0  0  0  0  0  0  0  0  0  0
   -3.7500    1.2990    0.0000 C   0  0  0  0  0  0  0  0  0  0  0  0
   -5.2500    1.2990    0.0000 C   0  0  0  0  0  0  0  0  0  0  0  0
   -6.0000    2.5981    0.0000 F   0  0  0  0  0  0  0  0  0  0  0  0
    1.5000   -2.5981    0.0000 C   0  0  0  0  0  0  0  0  0  0  0  0
    0.7500   -3.8971    0.0000 C   0  0  0  0  0  0  0  0  0  0  0  0
    1.5000   -5.1962    0.0000 N   0  0  0  0  0  0  0  0  0  0  0  0
    3.0000   -5.1962    0.0000 C   0  0  0  0  0  0  0  0  0  0  0  0
    0.7500   -6.4952    0.0000 C   0  0  0  0  0  0  0  0  0  0  0  0
   -0.7500   -6.4952    0.0000 C   0  0  0  0  0  0  0  0  0  0  0  0
    4.0000    0.0000    0.0000 Cl  0  0  0  0  0  0  0  0  0  0  0  0
  1  2  1  0
  2  3  1  0
  3  4  2  0
  4  5  1  0
  5  6  2  0
  6  7  1  0
  7  8  2  0
  7  9  1  0
  9 10  2  0
 10 11  1  0
 11 12  2  0
 12 13  1  0
 13 14  2  0
 14 15  1  0
 15 16  1  0
 16 17  1  0
 17 18  1  0
 10 19  1  0
 20 19  1  1
 20 21  1  0
 21 22  1  0
 21 23  1  0
 23 24  1  0
  8  3  1  0
 14  9  1  0
 24  5  1  0
 20  6  1  0
M  END
>  <assay_chembl_id>  (684) 
CHEMBL4372837

>  <assay_description>  (684) 
Displacement of [3H]LSD from 5HT2B receptor (unknown origin) expressed in HEK293 cell membranes

>  <parent_molecule_chembl_id>  (684) 
CHEMBL4596070

>  <canonical_smiles>  (684) 
COc1cc2c3c(c1)-c1c(cccc1OCCF)C[C@H]3N(C)CC2.Cl

>  <standard_type>  (684) 
Ki

>  <standard_relation>  (684) 
=

>  <standard_value>  (684) 
552.0

>  <standard_units>  (684) 
nM

>  <target_pref_name>  (684) 
Serotonin 2b (5-HT2b) receptor

>  <target_chembl_id>  (684) 
CHEMBL1833

>  <target_organism>  (684) 
Homo sapiens

>  <pchembl_median>  (684) 
7.62

$$$$
CHEMBL4277264
     RDKit          2D

 27 31  0  0  0  0  0  0  0  0999 V2000
   -5.1793    6.2320    0.0000 C   0  0  0  0  0  0  0  0  0  0  0  0
   -5.4912    4.7648    0.0000 C   0  0  0  0  0  0  0  0  0  0  0  0
   -4.3764    3.7611    0.0000 C   0  0  0  0  0  0  0  0  0  0  0  0
   -4.6883    2.2939    0.0000 C   0  0  0  0  0  0  0  0  0  0  0  0
   -3.5736    1.2902    0.0000 O   0  0  0  0  0  0  0  0  0  0  0  0
   -2.1470    1.7537    0.0000 C   0  0  0  0  0  0  0  0  0  0  0  0
   -1.8351    3.2209    0.0000 N   0  0  0  0  0  0  0  0  0  0  0  0
   -0.4086    3.6844    0.0000 C   0  0  0  0  0  0  0  0  0  0  0  0
    0.7062    2.6807    0.0000 C   0  0  0  0  0  0  0  0  0  0  0  0
    0.3943    1.2135    0.0000 C   0  0  0  0  0  0  0  0  0  0  0  0
    1.2760    0.0000    0.0000 O   0  0  0  0  0  0  0  0  0  0  0  0
    0.3943   -1.2135    0.0000 C   0  0  0  0  0  0  0  0  0  0  0  0
   -1.0323   -0.7500    0.0000 C   0  0  0  0  0  0  0  0  0  0  0  0
   -1.0323    0.7500    0.0000 C   0  0  0  0  0  0  0  0  0  0  0  0
   -6.1149    1.8303    0.0000 C   0  0  0  0  0  0  0  0  0  0  0  0
   -7.2296    2.8340    0.0000 C   0  0  0  0  0  0  0  0  0  0  0  0
   -6.9177    4.3013    0.0000 C   0  0  0  0  0  0  0  0  0  0  0  0
   -8.0325    5.3050    0.0000 C   0  0  0  0  0  0  0  0  0  0  0  0
   -7.7206    6.7722    0.0000 C   0  0  0  0  0  0  0  0  0  0  0  0
   -6.2940    7.2357    0.0000 C   0  0  0  0  0  0  0  0  0  0  0  0
   -8.8353    7.7759    0.0000 N   0  0  0  0  0  0  0  0  0  0  0  0
  -10.2619    7.3123    0.0000 C   0  0  0  0  0  0  0  0  0  0  0  0
  -10.5738    5.8451    0.0000 C   0  0  0  0  0  0  0  0  0  0  0  0
  -11.8728    5.0951    0.0000 N   0  0  0  0  0  0  0  0  0  0  0  0
  -11.5609    3.6279    0.0000 C   0  0  0  0  0  0  0  0  0  0  0  0
  -10.0691    3.4711    0.0000 C   0  0  0  0  0  0  0  0  0  0  0  0
   -9.4590    4.8414    0.0000 N   0  0  0  0  0  0  0  0  0  0  0  0
  1  2  1  0
  2  3  2  0
  3  4  1  0
  4  5  1  0
  5  6  1  0
  6  7  2  0
  7  8  1  0
  8  9  2  0
  9 10  1  0
 10 11  1  0
 11 12  1  0
 12 13  2  0
 13 14  1  0
  4 15  2  0
 15 16  1  0
 16 17  2  0
 17 18  1  0
 18 19  2  0
 19 20  1  0
 19 21  1  0
 21 22  2  0
 22 23  1  0
 23 24  2  0
 24 25  1  0
 25 26  2  0
 26 27  1  0
 17  2  1  0
 27 18  1  0
 14  6  1  0
 27 23  1  0
 14 10  2  0
M  END
>  <assay_chembl_id>  (685) 
CHEMBL4392141

>  <assay_description>  (685) 
Displacement of [3H]-LSD from recombinant human 5HT2B receptor stably expressed in HEK cells measured after 90 mins by microbeta scintillation counting method

>  <parent_molecule_chembl_id>  (685) 
CHEMBL4277264

>  <canonical_smiles>  (685) 
Cc1cc(Oc2nccc3occc23)ccc1-c1c(C)ncc2nccn12

>  <standard_type>  (685) 
Ki

>  <standard_relation>  (685) 
=

>  <standard_value>  (685) 
4100.0

>  <standard_units>  (685) 
nM

>  <target_pref_name>  (685) 
Serotonin 2b (5-HT2b) receptor

>  <target_chembl_id>  (685) 
CHEMBL1833

>  <target_organism>  (685) 
Homo sapiens

>  <pchembl_median>  (685) 
8.4

$$$$
CHEMBL4572614
     RDKit          2D

 30 34  0  0  0  0  0  0  0  0999 V2000
   -2.9499    4.2246    0.0000 C   0  0  0  0  0  0  0  0  0  0  0  0
   -1.8351    3.2209    0.0000 C   0  0  0  0  0  0  0  0  0  0  0  0
   -0.4086    3.6844    0.0000 N   0  0  0  0  0  0  0  0  0  0  0  0
    0.7062    2.6807    0.0000 C   0  0  0  0  0  0  0  0  0  0  0  0
    0.3943    1.2135    0.0000 C   0  0  0  0  0  0  0  0  0  0  0  0
    1.2760    0.0000    0.0000 N   0  0  0  0  0  0  0  0  0  0  0  0
    0.3943   -1.2135    0.0000 C   0  0  0  0  0  0  0  0  0  0  0  0
   -1.0323   -0.7500    0.0000 C   0  0  0  0  0  0  0  0  0  0  0  0
   -1.0323    0.7500    0.0000 N   0  0  0  0  0  0  0  0  0  0  0  0
   -2.1470    1.7537    0.0000 C   0  0  0  0  0  0  0  0  0  0  0  0
   -3.5736    1.2902    0.0000 C   0  0  0  0  0  0  0  0  0  0  0  0
   -4.6883    2.2939    0.0000 C   0  0  0  0  0  0  0  0  0  0  0  0
   -6.1149    1.8303    0.0000 C   0  0  0  0  0  0  0  0  0  0  0  0
   -6.4268    0.3631    0.0000 C   0  0  0  0  0  0  0  0  0  0  0  0
   -7.8533   -0.1004    0.0000 O   0  0  0  0  0  0  0  0  0  0  0  0
   -8.9681    0.9033    0.0000 C   0  0  0  0  0  0  0  0  0  0  0  0
   -8.6562    2.3705    0.0000 N   0  0  0  0  0  0  0  0  0  0  0  0
   -9.7709    3.3742    0.0000 C   0  0  0  0  0  0  0  0  0  0  0  0
  -11.1975    2.9107    0.0000 C   0  0  0  0  0  0  0  0  0  0  0  0
  -11.5094    1.4435    0.0000 C   0  0  0  0  0  0  0  0  0  0  0  0
  -12.8084    0.6935    0.0000 O   0  0  0  0  0  0  0  0  0  0  0  0
  -12.4965   -0.7738    0.0000 C   0  0  0  0  0  0  0  0  0  0  0  0
  -11.0047   -0.9306    0.0000 C   0  0  0  0  0  0  0  0  0  0  0  0
  -10.3946    0.4398    0.0000 C   0  0  0  0  0  0  0  0  0  0  0  0
   -5.3120   -0.6406    0.0000 C   0  0  0  0  0  0  0  0  0  0  0  0
   -3.8855   -0.1771    0.0000 C   0  0  0  0  0  0  0  0  0  0  0  0
   -2.7707   -1.1807    0.0000 C   0  0  0  0  0  0  0  0  0  0  0  0
   -1.6560   -2.1844    0.0000 F   0  0  0  0  0  0  0  0  0  0  0  0
   -3.7744   -2.2955    0.0000 F   0  0  0  0  0  0  0  0  0  0  0  0
   -1.7670   -0.0660    0.0000 F   0  0  0  0  0  0  0  0  0  0  0  0
  1  2  1  0
  2  3  1  0
  3  4  2  0
  4  5  1  0
  5  6  2  0
  6  7  1  0
  7  8  2  0
  8  9  1  0
  9 10  1  0
 10 11  1  0
 11 12  2  0
 12 13  1  0
 13 14  2  0
 14 15  1  0
 15 16  1  0
 16 17  2  0
 17 18  1  0
 18 19  2  0
 19 20  1  0
 20 21  1  0
 21 22  1  0
 22 23  2  0
 23 24  1  0
 14 25  1  0
 25 26  2  0
 26 27  1  0
 27 28  1  0
 27 29  1  0
 27 30  1  0
 10  2  2  0
 26 11  1  0
  9  5  1  0
 24 16  1  0
 24 20  2  0
M  END
>  <assay_chembl_id>  (686) 
CHEMBL4392141

>  <assay_description>  (686) 
Displacement of [3H]-LSD from recombinant human 5HT2B receptor stably expressed in HEK cells measured after 90 mins by microbeta scintillation counting method

>  <parent_molecule_chembl_id>  (686) 
CHEMBL4572614

>  <canonical_smiles>  (686) 
Cc1ncc2nccn2c1-c1ccc(Oc2nccc3occc23)cc1C(F)(F)F

>  <standard_type>  (686) 
Ki

>  <standard_relation>  (686) 
=

>  <standard_value>  (686) 
6700.0

>  <standard_units>  (686) 
nM

>  <target_pref_name>  (686) 
Serotonin 2b (5-HT2b) receptor

>  <target_chembl_id>  (686) 
CHEMBL1833

>  <target_organism>  (686) 
Homo sapiens

>  <pchembl_median>  (686) 
5.6

$$$$
CHEMBL4469848
     RDKit          2D

 29 33  0  0  0  0  0  0  0  0999 V2000
   -4.8674    7.6992    0.0000 F   0  0  0  0  0  0  0  0  0  0  0  0
   -5.1793    6.2320    0.0000 C   0  0  0  0  0  0  0  0  0  0  0  0
   -3.7121    5.9201    0.0000 F   0  0  0  0  0  0  0  0  0  0  0  0
   -6.6465    6.5439    0.0000 F   0  0  0  0  0  0  0  0  0  0  0  0
   -5.4912    4.7648    0.0000 C   0  0  0  0  0  0  0  0  0  0  0  0
   -4.3764    3.7611    0.0000 C   0  0  0  0  0  0  0  0  0  0  0  0
   -4.6883    2.2939    0.0000 C   0  0  0  0  0  0  0  0  0  0  0  0
   -3.5736    1.2902    0.0000 O   0  0  0  0  0  0  0  0  0  0  0  0
   -2.1470    1.7537    0.0000 C   0  0  0  0  0  0  0  0  0  0  0  0
   -1.8351    3.2209    0.0000 N   0  0  0  0  0  0  0  0  0  0  0  0
   -0.4086    3.6844    0.0000 C   0  0  0  0  0  0  0  0  0  0  0  0
    0.7062    2.6807    0.0000 C   0  0  0  0  0  0  0  0  0  0  0  0
    0.3943    1.2135    0.0000 C   0  0  0  0  0  0  0  0  0  0  0  0
    1.2760    0.0000    0.0000 O   0  0  0  0  0  0  0  0  0  0  0  0
    0.3943   -1.2135    0.0000 C   0  0  0  0  0  0  0  0  0  0  0  0
   -1.0323   -0.7500    0.0000 C   0  0  0  0  0  0  0  0  0  0  0  0
   -1.0323    0.7500    0.0000 C   0  0  0  0  0  0  0  0  0  0  0  0
   -6.1149    1.8303    0.0000 C   0  0  0  0  0  0  0  0  0  0  0  0
   -7.2296    2.8340    0.0000 C   0  0  0  0  0  0  0  0  0  0  0  0
   -6.9177    4.3013    0.0000 C   0  0  0  0  0  0  0  0  0  0  0  0
   -8.0325    5.3050    0.0000 C   0  0  0  0  0  0  0  0  0  0  0  0
   -7.7206    6.7722    0.0000 C   0  0  0  0  0  0  0  0  0  0  0  0
   -8.8353    7.7759    0.0000 C   0  0  0  0  0  0  0  0  0  0  0  0
  -10.2619    7.3123    0.0000 C   0  0  0  0  0  0  0  0  0  0  0  0
  -10.5738    5.8451    0.0000 C   0  0  0  0  0  0  0  0  0  0  0  0
  -11.8728    5.0951    0.0000 N   0  0  0  0  0  0  0  0  0  0  0  0
  -11.5609    3.6279    0.0000 C   0  0  0  0  0  0  0  0  0  0  0  0
  -10.0691    3.4711    0.0000 C   0  0  0  0  0  0  0  0  0  0  0  0
   -9.4590    4.8414    0.0000 N   0  0  0  0  0  0  0  0  0  0  0  0
  1  2  1  0
  2  3  1  0
  2  4  1  0
  2  5  1  0
  5  6  2  0
  6  7  1  0
  7  8  1  0
  8  9  1  0
  9 10  2  0
 10 11  1  0
 11 12  2  0
 12 13  1  0
 13 14  1  0
 14 15  1  0
 15 16  2  0
 16 17  1  0
  7 18  2  0
 18 19  1  0
 19 20  2  0
 20 21  1  0
 21 22  2  0
 22 23  1  0
 23 24  2  0
 24 25  1  0
 25 26  2  0
 26 27  1  0
 27 28  2  0
 28 29  1  0
 20  5  1  0
 29 21  1  0
 17  9  1  0
 29 25  1  0
 17 13  2  0
M  END
>  <assay_chembl_id>  (687) 
CHEMBL4392141

>  <assay_description>  (687) 
Displacement of [3H]-LSD from recombinant human 5HT2B receptor stably expressed in HEK cells measured after 90 mins by microbeta scintillation counting method

>  <parent_molecule_chembl_id>  (687) 
CHEMBL4469848

>  <canonical_smiles>  (687) 
FC(F)(F)c1cc(Oc2nccc3occc23)ccc1-c1cccc2nccn12

>  <standard_type>  (687) 
Ki

>  <standard_relation>  (687) 
=

>  <standard_value>  (687) 
830.0

>  <standard_units>  (687) 
nM

>  <target_pref_name>  (687) 
Serotonin 2b (5-HT2b) receptor

>  <target_chembl_id>  (687) 
CHEMBL1833

>  <target_organism>  (687) 
Homo sapiens

>  <pchembl_median>  (687) 
7.37

$$$$
CHEMBL4466483
     RDKit          2D

 29 33  0  0  0  0  0  0  0  0999 V2000
   -4.8674    7.6992    0.0000 F   0  0  0  0  0  0  0  0  0  0  0  0
   -5.1793    6.2320    0.0000 C   0  0  0  0  0  0  0  0  0  0  0  0
   -3.7121    5.9201    0.0000 F   0  0  0  0  0  0  0  0  0  0  0  0
   -6.6465    6.5439    0.0000 F   0  0  0  0  0  0  0  0  0  0  0  0
   -5.4912    4.7648    0.0000 C   0  0  0  0  0  0  0  0  0  0  0  0
   -4.3764    3.7611    0.0000 C   0  0  0  0  0  0  0  0  0  0  0  0
   -4.6883    2.2939    0.0000 C   0  0  0  0  0  0  0  0  0  0  0  0
   -3.5736    1.2902    0.0000 O   0  0  0  0  0  0  0  0  0  0  0  0
   -2.1470    1.7537    0.0000 C   0  0  0  0  0  0  0  0  0  0  0  0
   -1.8351    3.2209    0.0000 N   0  0  0  0  0  0  0  0  0  0  0  0
   -0.4086    3.6844    0.0000 C   0  0  0  0  0  0  0  0  0  0  0  0
    0.7062    2.6807    0.0000 C   0  0  0  0  0  0  0  0  0  0  0  0
    0.3943    1.2135    0.0000 C   0  0  0  0  0  0  0  0  0  0  0  0
    1.2760    0.0000    0.0000 C   0  0  0  0  0  0  0  0  0  0  0  0
    0.3943   -1.2135    0.0000 C   0  0  0  0  0  0  0  0  0  0  0  0
   -1.0323   -0.7500    0.0000 S   0  0  0  0  0  0  0  0  0  0  0  0
   -1.0323    0.7500    0.0000 C   0  0  0  0  0  0  0  0  0  0  0  0
   -6.1149    1.8303    0.0000 C   0  0  0  0  0  0  0  0  0  0  0  0
   -7.2296    2.8340    0.0000 C   0  0  0  0  0  0  0  0  0  0  0  0
   -6.9177    4.3013    0.0000 C   0  0  0  0  0  0  0  0  0  0  0  0
   -8.0325    5.3050    0.0000 C   0  0  0  0  0  0  0  0  0  0  0  0
   -7.7206    6.7722    0.0000 C   0  0  0  0  0  0  0  0  0  0  0  0
   -8.8353    7.7759    0.0000 C   0  0  0  0  0  0  0  0  0  0  0  0
  -10.2619    7.3123    0.0000 C   0  0  0  0  0  0  0  0  0  0  0  0
  -10.5738    5.8451    0.0000 C   0  0  0  0  0  0  0  0  0  0  0  0
  -11.8728    5.0951    0.0000 N   0  0  0  0  0  0  0  0  0  0  0  0
  -11.5609    3.6279    0.0000 C   0  0  0  0  0  0  0  0  0  0  0  0
  -10.0691    3.4711    0.0000 C   0  0  0  0  0  0  0  0  0  0  0  0
   -9.4590    4.8414    0.0000 N   0  0  0  0  0  0  0  0  0  0  0  0
  1  2  1  0
  2  3  1  0
  2  4  1  0
  2  5  1  0
  5  6  2  0
  6  7  1  0
  7  8  1  0
  8  9  1  0
  9 10  2  0
 10 11  1  0
 11 12  2  0
 12 13  1  0
 13 14  1  0
 14 15  2  0
 15 16  1  0
 16 17  1  0
  7 18  2  0
 18 19  1  0
 19 20  2  0
 20 21  1  0
 21 22  2  0
 22 23  1  0
 23 24  2  0
 24 25  1  0
 25 26  2  0
 26 27  1  0
 27 28  2  0
 28 29  1  0
 20  5  1  0
 29 21  1  0
 17  9  1  0
 29 25  1  0
 17 13  2  0
M  END
>  <assay_chembl_id>  (688) 
CHEMBL4392141

>  <assay_description>  (688) 
Displacement of [3H]-LSD from recombinant human 5HT2B receptor stably expressed in HEK cells measured after 90 mins by microbeta scintillation counting method

>  <parent_molecule_chembl_id>  (688) 
CHEMBL4466483

>  <canonical_smiles>  (688) 
FC(F)(F)c1cc(Oc2nccc3ccsc23)ccc1-c1cccc2nccn12

>  <standard_type>  (688) 
Ki

>  <standard_relation>  (688) 
=

>  <standard_value>  (688) 
1100.0

>  <standard_units>  (688) 
nM

>  <target_pref_name>  (688) 
Serotonin 2b (5-HT2b) receptor

>  <target_chembl_id>  (688) 
CHEMBL1833

>  <target_organism>  (688) 
Homo sapiens

>  <pchembl_median>  (688) 
9.0

$$$$
CHEMBL4084262
     RDKit          2D

 35 39  0  0  0  0  0  0  0  0999 V2000
    5.2500   -1.2990    0.0000 C   0  0  0  0  0  0  0  0  0  0  0  0
    3.7500   -1.2990    0.0000 O   0  0  0  0  0  0  0  0  0  0  0  0
    3.0000   -2.5981    0.0000 C   0  0  0  0  0  0  0  0  0  0  0  0
    3.7500   -3.8971    0.0000 C   0  0  0  0  0  0  0  0  0  0  0  0
    3.0000   -5.1962    0.0000 C   0  0  0  0  0  0  0  0  0  0  0  0
    1.5000   -5.1962    0.0000 C   0  0  0  0  0  0  0  0  0  0  0  0
    0.7500   -3.8971    0.0000 C   0  0  0  0  0  0  0  0  0  0  0  0
    1.5000   -2.5981    0.0000 C   0  0  0  0  0  0  0  0  0  0  0  0
    0.7500   -1.2990    0.0000 N   0  0  0  0  0  0  0  0  0  0  0  0
    1.5000    0.0000    0.0000 C   0  0  0  0  0  0  0  0  0  0  0  0
    0.7500    1.2990    0.0000 C   0  0  0  0  0  0  0  0  0  0  0  0
   -0.7500    1.2990    0.0000 C   0  0  0  0  0  0  0  0  0  0  0  0
   -0.0000    2.5981    0.0000 C   0  0  0  0  0  0  0  0  0  0  0  0
   -0.7500    3.8971    0.0000 C   0  0  0  0  0  0  0  0  0  0  0  0
   -2.2500    3.8971    0.0000 N   0  0  0  0  0  0  0  0  0  0  0  0
   -3.0000    5.1962    0.0000 C   0  0  0  0  0  0  0  0  0  0  0  0
   -2.2500    6.4952    0.0000 C   0  0  0  0  0  0  0  0  0  0  0  0
   -3.0000    7.7942    0.0000 C   0  0  0  0  0  0  0  0  0  0  0  0
   -2.2500    9.0933    0.0000 S   0  0  0  0  0  0  0  0  0  0  0  0
   -3.0000   10.3923    0.0000 C   0  0  0  0  0  0  0  0  0  0  0  0
   -4.4918   10.5491    0.0000 N   0  0  0  0  0  0  0  0  0  0  0  0
   -4.8037   12.0163    0.0000 N   0  0  0  0  0  0  0  0  0  0  0  0
   -3.5046   12.7663    0.0000 C   0  0  0  0  0  0  0  0  0  0  0  0
   -3.3478   14.2581    0.0000 C   0  0  0  0  0  0  0  0  0  0  0  0
   -1.9775   14.8682    0.0000 C   0  0  0  0  0  0  0  0  0  0  0  0
   -1.8207   16.3600    0.0000 C   0  0  0  0  0  0  0  0  0  0  0  0
   -3.0342   17.2417    0.0000 C   0  0  0  0  0  0  0  0  0  0  0  0
   -4.4046   16.6316    0.0000 C   0  0  0  0  0  0  0  0  0  0  0  0
   -4.5613   15.1398    0.0000 C   0  0  0  0  0  0  0  0  0  0  0  0
   -2.3899   11.7626    0.0000 N   0  0  0  0  0  0  0  0  0  0  0  0
   -0.9227   12.0745    0.0000 C   0  0  0  0  0  0  0  0  0  0  0  0
   -3.0000    2.5981    0.0000 C   0  0  0  0  0  0  0  0  0  0  0  0
   -2.2500    1.2990    0.0000 C   0  0  0  0  0  0  0  0  0  0  0  0
   -1.5000    0.0000    0.0000 C   0  0  0  0  0  0  0  0  0  0  0  0
   -0.7500   -1.2990    0.0000 C   0  0  0  0  0  0  0  0  0  0  0  0
  1  2  1  0
  2  3  1  0
  3  4  2  0
  4  5  1  0
  5  6  2  0
  6  7  1  0
  7  8  2  0
  8  9  1  0
  9 10  1  0
 10 11  1  0
 11 12  1  0
 12 13  1  0
 13 14  1  0
 14 15  1  0
 15 16  1  0
 16 17  1  0
 17 18  1  0
 18 19  1  0
 19 20  1  0
 20 21  2  0
 21 22  1  0
 22 23  2  0
 23 24  1  0
 24 25  2  0
 25 26  1  0
 26 27  2  0
 27 28  1  0
 28 29  2  0
 23 30  1  0
 30 31  1  0
 15 32  1  0
 32 33  1  0
 12 34  1  0
 34 35  1  0
  8  3  1  0
 35  9  1  0
 33 12  1  0
 30 20  1  0
 29 24  1  0
M  END
>  <assay_chembl_id>  (689) 
CHEMBL4397380

>  <assay_description>  (689) 
Displacement of [3H]-LSD from recombinant human 5HT2B receptor stably expressed in HEK cell membranes measured after 90 mins by microbeta scintillation counting method

>  <parent_molecule_chembl_id>  (689) 
CHEMBL4084262

>  <canonical_smiles>  (689) 
COc1ccccc1N1CCC2(CCN(CCCSc3nnc(-c4ccccc4)n3C)CC2)CC1

>  <standard_type>  (689) 
Ki

>  <standard_relation>  (689) 
=

>  <standard_value>  (689) 
2144.0

>  <standard_units>  (689) 
nM

>  <target_pref_name>  (689) 
Serotonin 2b (5-HT2b) receptor

>  <target_chembl_id>  (689) 
CHEMBL1833

>  <target_organism>  (689) 
Homo sapiens

>  <pchembl_median>  (689) 
8.52

$$$$
CHEMBL4083252
     RDKit          2D

 30 33  0  0  0  0  0  0  0  0999 V2000
    3.7500   -1.2990    0.0000 C   0  0  0  0  0  0  0  0  0  0  0  0
    3.0000    0.0000    0.0000 O   0  0  0  0  0  0  0  0  0  0  0  0
    1.5000    0.0000    0.0000 C   0  0  0  0  0  0  0  0  0  0  0  0
    0.7500   -1.2990    0.0000 C   0  0  0  0  0  0  0  0  0  0  0  0
   -0.7500   -1.2990    0.0000 C   0  0  0  0  0  0  0  0  0  0  0  0
   -1.5000    0.0000    0.0000 C   0  0  0  0  0  0  0  0  0  0  0  0
   -0.7500    1.2990    0.0000 C   0  0  0  0  0  0  0  0  0  0  0  0
    0.7500    1.2990    0.0000 C   0  0  0  0  0  0  0  0  0  0  0  0
    1.5000    2.5981    0.0000 N   0  0  0  0  0  0  0  0  0  0  0  0
    3.0000    2.5981    0.0000 C   0  0  0  0  0  0  0  0  0  0  0  0
    3.7500    3.8971    0.0000 C   0  0  0  0  0  0  0  0  0  0  0  0
    3.0000    5.1962    0.0000 N   0  0  0  0  0  0  0  0  0  0  0  0
    3.7500    6.4952    0.0000 C   0  0  0  0  0  0  0  0  0  0  0  0
    5.2500    6.4952    0.0000 C   0  0  0  0  0  0  0  0  0  0  0  0
    6.0000    7.7942    0.0000 C   0  0  0  0  0  0  0  0  0  0  0  0
    7.5000    7.7942    0.0000 S   0  0  0  0  0  0  0  0  0  0  0  0
    8.2500    9.0933    0.0000 C   0  0  0  0  0  0  0  0  0  0  0  0
    7.6399   10.4636    0.0000 N   0  0  0  0  0  0  0  0  0  0  0  0
    8.7546   11.4673    0.0000 N   0  0  0  0  0  0  0  0  0  0  0  0
   10.0537   10.7173    0.0000 C   0  0  0  0  0  0  0  0  0  0  0  0
   11.4240   11.3274    0.0000 C   0  0  0  0  0  0  0  0  0  0  0  0
   12.6375   10.4457    0.0000 C   0  0  0  0  0  0  0  0  0  0  0  0
   14.0078   11.0558    0.0000 C   0  0  0  0  0  0  0  0  0  0  0  0
   14.1646   12.5476    0.0000 C   0  0  0  0  0  0  0  0  0  0  0  0
   12.9511   13.4293    0.0000 C   0  0  0  0  0  0  0  0  0  0  0  0
   11.5808   12.8192    0.0000 C   0  0  0  0  0  0  0  0  0  0  0  0
    9.7418    9.2501    0.0000 N   0  0  0  0  0  0  0  0  0  0  0  0
   10.7455    8.1353    0.0000 C   0  0  0  0  0  0  0  0  0  0  0  0
    1.5000    5.1962    0.0000 C   0  0  0  0  0  0  0  0  0  0  0  0
    0.7500    3.8971    0.0000 C   0  0  0  0  0  0  0  0  0  0  0  0
  1  2  1  0
  2  3  1  0
  3  4  2  0
  4  5  1  0
  5  6  2  0
  6  7  1  0
  7  8  2  0
  8  9  1  0
  9 10  1  0
 10 11  1  0
 11 12  1  0
 12 13  1  0
 13 14  1  0
 14 15  1  0
 15 16  1  0
 16 17  1  0
 17 18  2  0
 18 19  1  0
 19 20  2  0
 20 21  1  0
 21 22  2  0
 22 23  1  0
 23 24  2  0
 24 25  1  0
 25 26  2  0
 20 27  1  0
 27 28  1  0
 12 29  1  0
 29 30  1  0
  8  3  1  0
 30  9  1  0
 27 17  1  0
 26 21  1  0
M  END
>  <assay_chembl_id>  (690) 
CHEMBL4397380

>  <assay_description>  (690) 
Displacement of [3H]-LSD from recombinant human 5HT2B receptor stably expressed in HEK cell membranes measured after 90 mins by microbeta scintillation counting method

>  <parent_molecule_chembl_id>  (690) 
CHEMBL4083252

>  <canonical_smiles>  (690) 
COc1ccccc1N1CCN(CCCSc2nnc(-c3ccccc3)n2C)CC1

>  <standard_type>  (690) 
Ki

>  <standard_relation>  (690) 
=

>  <standard_value>  (690) 
42.0

>  <standard_units>  (690) 
nM

>  <target_pref_name>  (690) 
Serotonin 2b (5-HT2b) receptor

>  <target_chembl_id>  (690) 
CHEMBL1833

>  <target_organism>  (690) 
Homo sapiens

>  <pchembl_median>  (690) 
6.26

$$$$
CHEMBL4476784
     RDKit          2D

 28 31  0  0  0  0  0  0  0  0999 V2000
  -12.9904   -3.6073    0.0000 C   0  0  0  0  0  0  0  0  0  0  0  0
  -12.9904   -5.1073    0.0000 O   0  0  0  0  0  0  0  0  0  0  0  0
  -11.6913   -5.8573    0.0000 C   0  0  0  0  0  0  0  0  0  0  0  0
  -10.3923   -5.1073    0.0000 C   0  0  0  0  0  0  0  0  0  0  0  0
   -9.0933   -5.8573    0.0000 C   0  0  0  0  0  0  0  0  0  0  0  0
   -9.0933   -7.3573    0.0000 C   0  0  0  0  0  0  0  0  0  0  0  0
   -7.7942   -8.1073    0.0000 O   0  0  0  0  0  0  0  0  0  0  0  0
   -6.4952   -7.3573    0.0000 C   0  0  0  0  0  0  0  0  0  0  0  0
   -5.1962   -8.1073    0.0000 C   0  0  0  0  0  0  0  0  0  0  0  0
   -3.8971   -7.3573    0.0000 N   0  0  0  0  0  0  0  0  0  0  0  0
   -2.5981   -8.1073    0.0000 C   0  0  0  0  0  0  0  0  0  0  0  0
   -1.2990   -7.3573    0.0000 C   0  0  0  0  0  0  0  0  0  0  0  0
   -1.2990   -5.8573    0.0000 N   0  0  0  0  0  0  0  0  0  0  0  0
   -0.0000   -5.1073    0.0000 C   0  0  0  0  0  0  0  0  0  0  0  0
    1.2990   -5.8573    0.0000 O   0  0  0  0  0  0  0  0  0  0  0  0
   -0.0000   -3.6073    0.0000 C   0  0  0  0  0  0  0  0  0  0  0  0
    1.2135   -2.7256    0.0000 C   0  0  0  0  0  0  0  0  0  0  0  0
    0.7500   -1.2990    0.0000 C   0  0  0  0  0  0  0  0  0  0  0  0
    1.5000    0.0000    0.0000 C   0  0  0  0  0  0  0  0  0  0  0  0
    0.7500    1.2990    0.0000 C   0  0  0  0  0  0  0  0  0  0  0  0
   -0.7500    1.2990    0.0000 C   0  0  0  0  0  0  0  0  0  0  0  0
   -1.5000    0.0000    0.0000 C   0  0  0  0  0  0  0  0  0  0  0  0
   -0.7500   -1.2990    0.0000 C   0  0  0  0  0  0  0  0  0  0  0  0
   -1.2135   -2.7256    0.0000 N   0  0  0  0  0  0  0  0  0  0  0  0
   -2.5981   -5.1073    0.0000 C   0  0  0  0  0  0  0  0  0  0  0  0
   -3.8971   -5.8573    0.0000 C   0  0  0  0  0  0  0  0  0  0  0  0
  -10.3923   -8.1073    0.0000 C   0  0  0  0  0  0  0  0  0  0  0  0
  -11.6913   -7.3573    0.0000 C   0  0  0  0  0  0  0  0  0  0  0  0
  1  2  1  0
  2  3  1  0
  3  4  2  0
  4  5  1  0
  5  6  2  0
  6  7  1  0
  7  8  1  0
  8  9  1  0
  9 10  1  0
 10 11  1  0
 11 12  1  0
 12 13  1  0
 13 14  1  0
 14 15  2  0
 14 16  1  0
 16 17  2  0
 17 18  1  0
 18 19  2  0
 19 20  1  0
 20 21  2  0
 21 22  1  0
 22 23  2  0
 23 24  1  0
 13 25  1  0
 25 26  1  0
  6 27  1  0
 27 28  2  0
 28  3  1  0
 26 10  1  0
 24 16  1  0
 23 18  1  0
M  END
>  <assay_chembl_id>  (691) 
CHEMBL4406605

>  <assay_description>  (691) 
Displacement of [3H]-LSD from recombinant human 5HT2B receptor stably expressed in HEK cell membranes measured after 90 mins by microbeta scintillation counting method

>  <parent_molecule_chembl_id>  (691) 
CHEMBL4476784

>  <canonical_smiles>  (691) 
COc1ccc(OCCN2CCN(C(=O)c3cc4ccccc4[nH]3)CC2)cc1

>  <standard_type>  (691) 
Ki

>  <standard_relation>  (691) 
=

>  <standard_value>  (691) 
674.0

>  <standard_units>  (691) 
nM

>  <target_pref_name>  (691) 
Serotonin 2b (5-HT2b) receptor

>  <target_chembl_id>  (691) 
CHEMBL1833

>  <target_organism>  (691) 
Homo sapiens

>  <pchembl_median>  (691) 
7.62

$$$$
CHEMBL2203406
     RDKit          2D

 34 38  0  0  0  0  0  0  0  0999 V2000
   -6.8280  -15.8610    0.0000 C   0  0  0  0  0  0  0  0  0  0  0  0
   -5.7673  -14.8003    0.0000 C   0  0  0  0  0  0  0  0  0  0  0  0
   -6.1555  -13.3514    0.0000 C   0  0  0  0  0  0  0  0  0  0  0  0
   -5.0949  -12.2907    0.0000 N   0  0  0  0  0  0  0  0  0  0  0  0
   -5.4831  -10.8419    0.0000 C   0  0  0  0  0  0  0  0  0  0  0  0
   -4.4224   -9.7812    0.0000 C   0  0  0  0  0  0  0  0  0  0  0  0
   -4.8107   -8.3323    0.0000 C   0  0  0  0  0  0  0  0  0  0  0  0
   -6.2595   -8.7205    0.0000 O   0  0  0  0  0  0  0  0  0  0  0  0
   -3.3618   -7.9441    0.0000 C   0  0  0  0  0  0  0  0  0  0  0  0
   -3.7500   -6.4952    0.0000 C   0  0  0  0  0  0  0  0  0  0  0  0
   -3.0000   -5.1962    0.0000 N   0  0  0  0  0  0  0  0  0  0  0  0
   -1.5000   -5.1962    0.0000 C   0  0  0  0  0  0  0  0  0  0  0  0
   -0.7500   -6.4952    0.0000 O   0  0  0  0  0  0  0  0  0  0  0  0
   -0.7500   -3.8971    0.0000 C   0  0  0  0  0  0  0  0  0  0  0  0
    0.7500   -3.8971    0.0000 C   0  0  0  0  0  0  0  0  0  0  0  0
    1.5000   -2.5981    0.0000 C   0  0  0  0  0  0  0  0  0  0  0  0
    0.7500   -1.2990    0.0000 C   0  0  0  0  0  0  0  0  0  0  0  0
    1.5000    0.0000    0.0000 C   0  0  0  0  0  0  0  0  0  0  0  0
    0.7500    1.2990    0.0000 C   0  0  0  0  0  0  0  0  0  0  0  0
   -0.7500    1.2990    0.0000 C   0  0  0  0  0  0  0  0  0  0  0  0
   -1.5000    0.0000    0.0000 C   0  0  0  0  0  0  0  0  0  0  0  0
   -0.7500   -1.2990    0.0000 C   0  0  0  0  0  0  0  0  0  0  0  0
   -1.5000   -2.5981    0.0000 C   0  0  0  0  0  0  0  0  0  0  0  0
   -5.1989   -6.8834    0.0000 C   0  0  0  0  0  0  0  0  0  0  0  0
   -3.6460  -12.6790    0.0000 C   0  0  0  0  0  0  0  0  0  0  0  0
   -2.5853  -11.6183    0.0000 C   0  0  0  0  0  0  0  0  0  0  0  0
   -1.1364  -12.0065    0.0000 C   0  0  0  0  0  0  0  0  0  0  0  0
   -0.7482  -13.4554    0.0000 C   0  0  0  0  0  0  0  0  0  0  0  0
    0.5883  -14.1364    0.0000 N   0  0  0  0  0  0  0  0  0  0  0  0
    0.3537  -15.6179    0.0000 C   0  0  0  0  0  0  0  0  0  0  0  0
    1.4143  -16.6786    0.0000 N   0  0  0  0  0  0  0  0  0  0  0  0
   -1.1279  -15.8526    0.0000 S   0  0  0  0  0  0  0  0  0  0  0  0
   -1.8089  -14.5161    0.0000 C   0  0  0  0  0  0  0  0  0  0  0  0
   -3.2577  -14.1279    0.0000 C   0  0  0  0  0  0  0  0  0  0  0  0
  1  2  1  0
  2  3  1  0
  3  4  1  0
  4  5  1  0
  5  6  1  0
  6  7  1  0
  7  8  1  6
  7  9  1  0
  9 10  1  0
 10 11  1  1
 11 12  1  0
 12 13  2  0
 12 14  1  0
 14 15  2  0
 15 16  1  0
 16 17  2  0
 17 18  1  0
 18 19  2  0
 19 20  1  0
 20 21  2  0
 21 22  1  0
 22 23  2  0
 10 24  1  0
 25  4  1  1
 25 26  1  0
 26 27  1  0
 27 28  1  0
 28 29  1  0
 29 30  2  0
 30 31  1  0
 30 32  1  0
 32 33  1  0
 33 34  1  0
 24  7  1  0
 34 25  1  0
 23 14  1  0
 33 28  2  0
 22 17  1  0
M  END
>  <assay_chembl_id>  (692) 
CHEMBL4406605

>  <assay_description>  (692) 
Displacement of [3H]-LSD from recombinant human 5HT2B receptor stably expressed in HEK cell membranes measured after 90 mins by microbeta scintillation counting method

>  <parent_molecule_chembl_id>  (692) 
CHEMBL2203406

>  <canonical_smiles>  (692) 
CCCN(CC[C@]1(O)C[C@H](NC(=O)c2ccc3ccccc3c2)C1)[C@H]1CCc2nc(N)sc2C1

>  <standard_type>  (692) 
Ki

>  <standard_relation>  (692) 
=

>  <standard_value>  (692) 
1178.0

>  <standard_units>  (692) 
nM

>  <target_pref_name>  (692) 
Serotonin 2b (5-HT2b) receptor

>  <target_chembl_id>  (692) 
CHEMBL1833

>  <target_organism>  (692) 
Homo sapiens

>  <pchembl_median>  (692) 
5.7

$$$$
CHEMBL4514672
     RDKit          2D

 23 25  0  0  0  0  0  0  0  0999 V2000
   -0.0000   -5.1962    0.0000 C   0  0  0  0  0  0  0  0  0  0  0  0
    0.7500   -3.8971    0.0000 C   0  0  0  0  0  0  0  0  0  0  0  0
   -0.0000   -2.5981    0.0000 N   0  0  0  0  0  0  0  0  0  0  0  0
    0.7500   -1.2990    0.0000 C   0  0  0  0  0  0  0  0  0  0  0  0
    1.5000    0.0000    0.0000 C   0  0  0  0  0  0  0  0  0  0  0  0
    0.7500    1.2990    0.0000 C   0  0  0  0  0  0  0  0  0  0  0  0
   -0.7500    1.2990    0.0000 N   0  0  0  0  0  0  0  0  0  0  0  0
   -1.5000    2.5981    0.0000 C   0  0  0  0  0  0  0  0  0  0  0  0
   -1.5000    0.0000    0.0000 C   0  0  0  0  0  0  0  0  0  0  0  0
   -0.7500   -1.2990    0.0000 C   0  0  0  0  0  0  0  0  0  0  0  0
    2.2500   -1.2990    0.0000 C   0  0  0  0  0  0  0  0  0  0  0  0
    3.0000   -0.0000    0.0000 O   0  0  0  0  0  0  0  0  0  0  0  0
    3.0000   -2.5981    0.0000 N   0  0  0  0  0  0  0  0  0  0  0  0
    4.5000   -2.5981    0.0000 C   0  0  0  0  0  0  0  0  0  0  0  0
    5.2500   -3.8971    0.0000 C   0  0  0  0  0  0  0  0  0  0  0  0
    4.5000   -5.1962    0.0000 C   0  0  0  0  0  0  0  0  0  0  0  0
    6.7500   -3.8971    0.0000 C   0  0  0  0  0  0  0  0  0  0  0  0
    7.5000   -2.5981    0.0000 C   0  0  0  0  0  0  0  0  0  0  0  0
    6.7500   -1.2990    0.0000 C   0  0  0  0  0  0  0  0  0  0  0  0
    5.2500   -1.2990    0.0000 C   0  0  0  0  0  0  0  0  0  0  0  0
    4.5000   -0.0000    0.0000 C   0  0  0  0  0  0  0  0  0  0  0  0
    2.2500   -3.8971    0.0000 C   0  0  0  0  0  0  0  0  0  0  0  0
    3.0000   -5.1962    0.0000 O   0  0  0  0  0  0  0  0  0  0  0  0
  1  2  1  0
  2  3  2  0
  3  4  1  0
  4  5  1  0
  5  6  1  0
  6  7  1  0
  7  8  1  0
  7  9  1  0
  9 10  1  0
  4 11  1  0
 11 12  2  0
 11 13  1  0
 13 14  1  0
 14 15  2  0
 15 16  1  0
 15 17  1  0
 17 18  2  0
 18 19  1  0
 19 20  2  0
 20 21  1  0
 13 22  1  0
 22 23  2  0
 22  2  1  0
 10  4  1  0
 20 14  1  0
M  END
>  <assay_chembl_id>  (693) 
CHEMBL4423336

>  <assay_description>  (693) 
Displacement of [3H]LSD from human 5-HT2B receptor expressed in HEK cells by radioligand binding assay

>  <parent_molecule_chembl_id>  (693) 
CHEMBL4514672

>  <canonical_smiles>  (693) 
CC1=NC2(CCN(C)CC2)C(=O)N(c2c(C)cccc2C)C1=O

>  <standard_type>  (693) 
Ki

>  <standard_relation>  (693) 
=

>  <standard_value>  (693) 
231.0

>  <standard_units>  (693) 
nM

>  <target_pref_name>  (693) 
Serotonin 2b (5-HT2b) receptor

>  <target_chembl_id>  (693) 
CHEMBL1833

>  <target_organism>  (693) 
Homo sapiens

>  <pchembl_median>  (693) 
7.1

$$$$
CHEMBL4552298
     RDKit          2D

 24 26  0  0  0  0  0  0  0  0999 V2000
    2.2500   -6.4952    0.0000 C   0  0  0  0  0  0  0  0  0  0  0  0
    0.7500   -6.4952    0.0000 C   0  0  0  0  0  0  0  0  0  0  0  0
   -0.0000   -7.7942    0.0000 C   0  0  0  0  0  0  0  0  0  0  0  0
   -1.5000   -7.7942    0.0000 C   0  0  0  0  0  0  0  0  0  0  0  0
   -2.2500   -6.4952    0.0000 C   0  0  0  0  0  0  0  0  0  0  0  0
   -1.5000   -5.1962    0.0000 C   0  0  0  0  0  0  0  0  0  0  0  0
   -2.2500   -3.8971    0.0000 C   0  0  0  0  0  0  0  0  0  0  0  0
   -0.0000   -5.1962    0.0000 C   0  0  0  0  0  0  0  0  0  0  0  0
    0.7500   -3.8971    0.0000 N   0  0  0  0  0  0  0  0  0  0  0  0
    2.2500   -3.8971    0.0000 C   0  0  0  0  0  0  0  0  0  0  0  0
    3.0000   -5.1962    0.0000 O   0  0  0  0  0  0  0  0  0  0  0  0
    3.0000   -2.5981    0.0000 C   0  0  0  0  0  0  0  0  0  0  0  0
    4.5000   -2.5981    0.0000 C   0  0  0  0  0  0  0  0  0  0  0  0
    5.2500   -3.8971    0.0000 O   0  0  0  0  0  0  0  0  0  0  0  0
    2.2500   -1.2990    0.0000 N   0  0  0  0  0  0  0  0  0  0  0  0
    0.7500   -1.2990    0.0000 C   0  0  0  0  0  0  0  0  0  0  0  0
    1.5000    0.0000    0.0000 C   0  0  0  0  0  0  0  0  0  0  0  0
    0.7500    1.2990    0.0000 C   0  0  0  0  0  0  0  0  0  0  0  0
   -0.7500    1.2990    0.0000 N   0  0  0  0  0  0  0  0  0  0  0  0
   -1.5000    2.5981    0.0000 C   0  0  0  0  0  0  0  0  0  0  0  0
   -1.5000    0.0000    0.0000 C   0  0  0  0  0  0  0  0  0  0  0  0
   -0.7500   -1.2990    0.0000 C   0  0  0  0  0  0  0  0  0  0  0  0
   -0.0000   -2.5981    0.0000 C   0  0  0  0  0  0  0  0  0  0  0  0
   -1.5000   -2.5981    0.0000 O   0  0  0  0  0  0  0  0  0  0  0  0
  1  2  1  0
  2  3  2  0
  3  4  1  0
  4  5  2  0
  5  6  1  0
  6  7  1  0
  6  8  2  0
  8  9  1  0
  9 10  1  0
 10 11  2  0
 10 12  1  0
 12 13  1  1
 13 14  1  0
 12 15  1  0
 15 16  1  0
 16 17  1  0
 17 18  1  0
 18 19  1  0
 19 20  1  0
 19 21  1  0
 21 22  1  0
 16 23  1  0
 23 24  2  0
  8  2  1  0
 23  9  1  0
 22 16  1  0
M  END
>  <assay_chembl_id>  (694) 
CHEMBL4423336

>  <assay_description>  (694) 
Displacement of [3H]LSD from human 5-HT2B receptor expressed in HEK cells by radioligand binding assay

>  <parent_molecule_chembl_id>  (694) 
CHEMBL4552298

>  <canonical_smiles>  (694) 
Cc1cccc(C)c1N1C(=O)[C@H](CO)NC2(CCN(C)CC2)C1=O

>  <standard_type>  (694) 
Ki

>  <standard_relation>  (694) 
=

>  <standard_value>  (694) 
2051.0

>  <standard_units>  (694) 
nM

>  <target_pref_name>  (694) 
Serotonin 2b (5-HT2b) receptor

>  <target_chembl_id>  (694) 
CHEMBL1833

>  <target_organism>  (694) 
Homo sapiens

>  <pchembl_median>  (694) 
5.61

$$$$
CHEMBL4562437
     RDKit          2D

 32 36  0  0  0  0  0  0  0  0999 V2000
    2.2500   -6.4952    0.0000 C   0  0  0  0  0  0  0  0  0  0  0  0
    0.7500   -6.4952    0.0000 C   0  0  0  0  0  0  0  0  0  0  0  0
   -0.0000   -7.7942    0.0000 C   0  0  0  0  0  0  0  0  0  0  0  0
   -1.5000   -7.7942    0.0000 C   0  0  0  0  0  0  0  0  0  0  0  0
   -2.2500   -6.4952    0.0000 C   0  0  0  0  0  0  0  0  0  0  0  0
   -1.5000   -5.1962    0.0000 C   0  0  0  0  0  0  0  0  0  0  0  0
   -2.2500   -3.8971    0.0000 C   0  0  0  0  0  0  0  0  0  0  0  0
   -0.0000   -5.1962    0.0000 C   0  0  0  0  0  0  0  0  0  0  0  0
    0.7500   -3.8971    0.0000 N   0  0  0  0  0  0  0  0  0  0  0  0
    2.2500   -3.8971    0.0000 C   0  0  0  0  0  0  0  0  0  0  0  0
    3.0000   -5.1962    0.0000 O   0  0  0  0  0  0  0  0  0  0  0  0
    3.0000   -2.5981    0.0000 C   0  0  0  0  0  0  0  0  0  0  0  0
    4.5000   -2.5981    0.0000 C   0  0  0  0  0  0  0  0  0  0  0  0
    5.2500   -3.8971    0.0000 C   0  0  0  0  0  0  0  0  0  0  0  0
    4.6399   -5.2674    0.0000 C   0  0  0  0  0  0  0  0  0  0  0  0
    5.7546   -6.2711    0.0000 N   0  0  0  0  0  0  0  0  0  0  0  0
    7.0537   -5.5211    0.0000 C   0  0  0  0  0  0  0  0  0  0  0  0
    8.4802   -5.9847    0.0000 C   0  0  0  0  0  0  0  0  0  0  0  0
    9.5950   -4.9810    0.0000 C   0  0  0  0  0  0  0  0  0  0  0  0
    9.2831   -3.5137    0.0000 C   0  0  0  0  0  0  0  0  0  0  0  0
    7.8565   -3.0502    0.0000 C   0  0  0  0  0  0  0  0  0  0  0  0
    6.7418   -4.0539    0.0000 C   0  0  0  0  0  0  0  0  0  0  0  0
    2.2500   -1.2990    0.0000 N   0  0  0  0  0  0  0  0  0  0  0  0
    0.7500   -1.2990    0.0000 C   0  0  0  0  0  0  0  0  0  0  0  0
    1.5000    0.0000    0.0000 C   0  0  0  0  0  0  0  0  0  0  0  0
    0.7500    1.2990    0.0000 C   0  0  0  0  0  0  0  0  0  0  0  0
   -0.7500    1.2990    0.0000 N   0  0  0  0  0  0  0  0  0  0  0  0
   -1.5000    2.5981    0.0000 C   0  0  0  0  0  0  0  0  0  0  0  0
   -1.5000    0.0000    0.0000 C   0  0  0  0  0  0  0  0  0  0  0  0
   -0.7500   -1.2990    0.0000 C   0  0  0  0  0  0  0  0  0  0  0  0
   -0.0000   -2.5981    0.0000 C   0  0  0  0  0  0  0  0  0  0  0  0
   -1.5000   -2.5981    0.0000 O   0  0  0  0  0  0  0  0  0  0  0  0
  1  2  1  0
  2  3  2  0
  3  4  1  0
  4  5  2  0
  5  6  1  0
  6  7  1  0
  6  8  2  0
  8  9  1  0
  9 10  1  0
 10 11  2  0
 10 12  1  0
 12 13  1  1
 13 14  1  0
 14 15  1  0
 15 16  1  0
 16 17  1  0
 17 18  2  0
 18 19  1  0
 19 20  2  0
 20 21  1  0
 21 22  2  0
 12 23  1  0
 23 24  1  0
 24 25  1  0
 25 26  1  0
 26 27  1  0
 27 28  1  0
 27 29  1  0
 29 30  1  0
 24 31  1  0
 31 32  2  0
  8  2  1  0
 31  9  1  0
 22 14  1  0
 30 24  1  0
 22 17  1  0
M  END
>  <assay_chembl_id>  (695) 
CHEMBL4423336

>  <assay_description>  (695) 
Displacement of [3H]LSD from human 5-HT2B receptor expressed in HEK cells by radioligand binding assay

>  <parent_molecule_chembl_id>  (695) 
CHEMBL4562437

>  <canonical_smiles>  (695) 
Cc1cccc(C)c1N1C(=O)[C@H](CC2CNc3ccccc32)NC2(CCN(C)CC2)C1=O

>  <standard_type>  (695) 
Ki

>  <standard_relation>  (695) 
=

>  <standard_value>  (695) 
840.0

>  <standard_units>  (695) 
nM

>  <target_pref_name>  (695) 
Serotonin 2b (5-HT2b) receptor

>  <target_chembl_id>  (695) 
CHEMBL1833

>  <target_organism>  (695) 
Homo sapiens

>  <pchembl_median>  (695) 
7.0

$$$$
CHEMBL4472251
     RDKit          2D

 22 24  0  0  0  0  0  0  0  0999 V2000
    2.2500   -6.4952    0.0000 C   0  0  0  0  0  0  0  0  0  0  0  0
    0.7500   -6.4952    0.0000 C   0  0  0  0  0  0  0  0  0  0  0  0
   -0.0000   -7.7942    0.0000 C   0  0  0  0  0  0  0  0  0  0  0  0
   -1.5000   -7.7942    0.0000 C   0  0  0  0  0  0  0  0  0  0  0  0
   -2.2500   -6.4952    0.0000 C   0  0  0  0  0  0  0  0  0  0  0  0
   -1.5000   -5.1962    0.0000 C   0  0  0  0  0  0  0  0  0  0  0  0
   -2.2500   -3.8971    0.0000 C   0  0  0  0  0  0  0  0  0  0  0  0
   -0.0000   -5.1962    0.0000 C   0  0  0  0  0  0  0  0  0  0  0  0
    0.7500   -3.8971    0.0000 N   0  0  0  0  0  0  0  0  0  0  0  0
    2.2500   -3.8971    0.0000 C   0  0  0  0  0  0  0  0  0  0  0  0
    3.0000   -5.1962    0.0000 O   0  0  0  0  0  0  0  0  0  0  0  0
    3.0000   -2.5981    0.0000 C   0  0  0  0  0  0  0  0  0  0  0  0
    2.2500   -1.2990    0.0000 N   0  0  0  0  0  0  0  0  0  0  0  0
    0.7500   -1.2990    0.0000 C   0  0  0  0  0  0  0  0  0  0  0  0
    1.5000    0.0000    0.0000 C   0  0  0  0  0  0  0  0  0  0  0  0
    0.7500    1.2990    0.0000 C   0  0  0  0  0  0  0  0  0  0  0  0
   -0.7500    1.2990    0.0000 N   0  0  0  0  0  0  0  0  0  0  0  0
   -1.5000    2.5981    0.0000 C   0  0  0  0  0  0  0  0  0  0  0  0
   -1.5000    0.0000    0.0000 C   0  0  0  0  0  0  0  0  0  0  0  0
   -0.7500   -1.2990    0.0000 C   0  0  0  0  0  0  0  0  0  0  0  0
   -0.0000   -2.5981    0.0000 C   0  0  0  0  0  0  0  0  0  0  0  0
   -1.5000   -2.5981    0.0000 O   0  0  0  0  0  0  0  0  0  0  0  0
  1  2  1  0
  2  3  2  0
  3  4  1  0
  4  5  2  0
  5  6  1  0
  6  7  1  0
  6  8  2  0
  8  9  1  0
  9 10  1  0
 10 11  2  0
 10 12  1  0
 12 13  1  0
 13 14  1  0
 14 15  1  0
 15 16  1  0
 16 17  1  0
 17 18  1  0
 17 19  1  0
 19 20  1  0
 14 21  1  0
 21 22  2  0
  8  2  1  0
 21  9  1  0
 20 14  1  0
M  END
>  <assay_chembl_id>  (696) 
CHEMBL4423336

>  <assay_description>  (696) 
Displacement of [3H]LSD from human 5-HT2B receptor expressed in HEK cells by radioligand binding assay

>  <parent_molecule_chembl_id>  (696) 
CHEMBL4472251

>  <canonical_smiles>  (696) 
Cc1cccc(C)c1N1C(=O)CNC2(CCN(C)CC2)C1=O

>  <standard_type>  (696) 
Ki

>  <standard_relation>  (696) 
=

>  <standard_value>  (696) 
742.0

>  <standard_units>  (696) 
nM

>  <target_pref_name>  (696) 
Serotonin 2b (5-HT2b) receptor

>  <target_chembl_id>  (696) 
CHEMBL1833

>  <target_organism>  (696) 
Homo sapiens

>  <pchembl_median>  (696) 
5.71

$$$$
CHEMBL4552895
     RDKit          2D

 32 37  0  0  0  0  0  0  0  0999 V2000
   -7.3559    4.0525    0.0000 O   0  0  0  0  0  0  0  0  0  0  0  0
   -7.5127    2.5607    0.0000 C   0  0  0  0  0  0  0  0  0  0  0  0
   -6.2992    1.6790    0.0000 C   0  0  0  0  0  0  0  0  0  0  0  0
   -7.0492    0.3800    0.0000 C   0  0  0  0  0  0  0  0  0  0  0  0
   -5.5492    0.3800    0.0000 C   0  0  0  0  0  0  0  0  0  0  0  0
   -4.0819    0.6918    0.0000 C   0  0  0  0  0  0  0  0  0  0  0  0
   -2.9672   -0.3119    0.0000 N   0  0  0  0  0  0  0  0  0  0  0  0
   -3.1240   -1.8037    0.0000 C   0  0  0  0  0  0  0  0  0  0  0  0
   -1.7537   -2.4138    0.0000 C   0  0  0  0  0  0  0  0  0  0  0  0
   -1.4418   -3.8810    0.0000 C   0  0  0  0  0  0  0  0  0  0  0  0
   -2.5565   -4.8847    0.0000 C   0  0  0  0  0  0  0  0  0  0  0  0
   -2.2447   -6.3519    0.0000 C   0  0  0  0  0  0  0  0  0  0  0  0
   -0.8181   -6.8154    0.0000 C   0  0  0  0  0  0  0  0  0  0  0  0
    0.2966   -5.8117    0.0000 C   0  0  0  0  0  0  0  0  0  0  0  0
   -0.0152   -4.3445    0.0000 C   0  0  0  0  0  0  0  0  0  0  0  0
   -0.7500   -1.2990    0.0000 C   0  0  0  0  0  0  0  0  0  0  0  0
    0.7500   -1.2990    0.0000 C   0  0  0  0  0  0  0  0  0  0  0  0
    1.5000   -2.5981    0.0000 N   0  0  0  0  0  0  0  0  0  0  0  0
    3.0000   -2.5981    0.0000 C   0  0  0  0  0  0  0  0  0  0  0  0
    3.7500   -3.8971    0.0000 C   0  0  0  0  0  0  0  0  0  0  0  0
    5.2500   -3.8971    0.0000 C   0  0  0  0  0  0  0  0  0  0  0  0
    6.0000   -2.5981    0.0000 C   0  0  0  0  0  0  0  0  0  0  0  0
    5.2500   -1.2990    0.0000 C   0  0  0  0  0  0  0  0  0  0  0  0
    3.7500   -1.2990    0.0000 C   0  0  0  0  0  0  0  0  0  0  0  0
    1.5000    0.0000    0.0000 N   0  0  0  0  0  0  0  0  0  0  0  0
    0.7500    1.2990    0.0000 C   0  0  0  0  0  0  0  0  0  0  0  0
   -0.7500    1.2990    0.0000 N   0  0  0  0  0  0  0  0  0  0  0  0
   -1.5000    0.0000    0.0000 C   0  0  0  0  0  0  0  0  0  0  0  0
   -3.9251    2.1836    0.0000 C   0  0  0  0  0  0  0  0  0  0  0  0
   -2.6261    2.9336    0.0000 O   0  0  0  0  0  0  0  0  0  0  0  0
   -5.2955    2.7937    0.0000 C   0  0  0  0  0  0  0  0  0  0  0  0
   -5.6073    4.2609    0.0000 O   0  0  0  0  0  0  0  0  0  0  0  0
  1  2  1  0
  3  2  1  6
  3  4  1  0
  5  4  1  1
  5  6  1  0
  6  7  1  6
  7  8  1  0
  8  9  2  0
  9 10  1  0
 10 11  2  0
 11 12  1  0
 12 13  2  0
 13 14  1  0
 14 15  2  0
  9 16  1  0
 16 17  2  0
 17 18  1  0
 18 19  1  0
 19 20  2  0
 20 21  1  0
 21 22  2  0
 22 23  1  0
 23 24  2  0
 17 25  1  0
 25 26  2  0
 26 27  1  0
 27 28  2  0
  6 29  1  0
 29 30  1  1
 29 31  1  0
 31 32  1  1
  5  3  1  0
 28  7  1  0
 31  3  1  0
 15 10  1  0
 28 16  1  0
 24 19  1  0
M  END
>  <assay_chembl_id>  (697) 
CHEMBL4428697

>  <assay_description>  (697) 
Inhibition of human 5HT2B by radio-ligand binding displacement assay

>  <parent_molecule_chembl_id>  (697) 
CHEMBL4552895

>  <canonical_smiles>  (697) 
OC[C@@]12C[C@@H]1[C@@H](n1cc(-c3ccccc3)c3c(Nc4ccccc4)ncnc31)[C@H](O)[C@@H]2O

>  <standard_type>  (697) 
Ki

>  <standard_relation>  (697) 
=

>  <standard_value>  (697) 
51.0

>  <standard_units>  (697) 
nM

>  <target_pref_name>  (697) 
Serotonin 2b (5-HT2b) receptor

>  <target_chembl_id>  (697) 
CHEMBL1833

>  <target_organism>  (697) 
Homo sapiens

>  <pchembl_median>  (697) 
6.25

$$$$
CHEMBL4642763
     RDKit          2D

 14 16  0  0  0  0  0  0  0  0999 V2000
   -2.2281    5.1997    0.0000 Cl  0  0  0  0  0  0  0  0  0  0  0  0
   -2.0045    3.7165    0.0000 C   0  0  0  0  0  0  0  0  0  0  0  0
   -3.1773    2.7813    0.0000 C   0  0  0  0  0  0  0  0  0  0  0  0
   -2.9537    1.2980    0.0000 C   0  0  0  0  0  0  0  0  0  0  0  0
   -1.5574    0.7500    0.0000 C   0  0  0  0  0  0  0  0  0  0  0  0
   -0.3846    1.6852    0.0000 C   0  0  0  0  0  0  0  0  0  0  0  0
   -0.6082    3.1685    0.0000 C   0  0  0  0  0  0  0  0  0  0  0  0
    0.7528    3.7990    0.0000 C   0  0  0  0  0  0  0  0  0  0  0  0
    1.7731    2.6994    0.0000 C   0  0  0  0  0  0  0  0  0  0  0  0
    1.0777    1.3515    0.0000 N   0  0  0  0  0  0  0  0  0  0  0  0
    1.7286    0.0000    0.0000 C   0  0  0  0  0  0  0  0  0  0  0  0
    1.0777   -1.3515    0.0000 C   0  0  0  0  0  0  0  0  0  0  0  0
   -0.3846   -1.6852    0.0000 N   0  0  0  0  0  0  0  0  0  0  0  0
   -1.5574   -0.7500    0.0000 C   0  0  0  0  0  0  0  0  0  0  0  0
  1  2  1  0
  2  3  2  0
  3  4  1  0
  4  5  2  0
  5  6  1  0
  6  7  2  0
  7  8  1  0
  8  9  1  0
  9 10  1  0
 10 11  1  0
 11 12  1  0
 12 13  1  0
 13 14  1  0
  7  2  1  0
 14  5  1  0
 10  6  1  0
M  END
>  <assay_chembl_id>  (698) 
CHEMBL4617355

>  <assay_description>  (698) 
Displacement of [125I]-1,4-Iodanyl-2,5-dimethoxyphenyl)propan-2amine from 5HT2B receptor (unknown origin)

>  <parent_molecule_chembl_id>  (698) 
CHEMBL4642763

>  <canonical_smiles>  (698) 
Clc1ccc2c3c1CCN3CCNC2

>  <standard_type>  (698) 
Ki

>  <standard_relation>  (698) 
=

>  <standard_value>  (698) 
637.0

>  <standard_units>  (698) 
nM

>  <target_pref_name>  (698) 
Serotonin 2b (5-HT2b) receptor

>  <target_chembl_id>  (698) 
CHEMBL1833

>  <target_organism>  (698) 
Homo sapiens

>  <pchembl_median>  (698) 
5.98

$$$$
CHEMBL4638807
     RDKit          2D

 15 17  0  0  0  0  0  0  0  0999 V2000
   -2.2281    5.1997    0.0000 Cl  0  0  0  0  0  0  0  0  0  0  0  0
   -2.0045    3.7165    0.0000 C   0  0  0  0  0  0  0  0  0  0  0  0
   -3.1773    2.7813    0.0000 C   0  0  0  0  0  0  0  0  0  0  0  0
   -2.9537    1.2980    0.0000 C   0  0  0  0  0  0  0  0  0  0  0  0
   -1.5574    0.7500    0.0000 C   0  0  0  0  0  0  0  0  0  0  0  0
   -0.3846    1.6852    0.0000 C   0  0  0  0  0  0  0  0  0  0  0  0
   -0.6082    3.1685    0.0000 C   0  0  0  0  0  0  0  0  0  0  0  0
    0.4102    4.2762    0.0000 C   0  0  0  0  0  0  0  0  0  0  0  0
    1.8435    3.8341    0.0000 C   0  0  0  0  0  0  0  0  0  0  0  0
    2.1773    2.3717    0.0000 C   0  0  0  0  0  0  0  0  0  0  0  0
    1.0777    1.3515    0.0000 N   0  0  0  0  0  0  0  0  0  0  0  0
    1.7286    0.0000    0.0000 C   0  0  0  0  0  0  0  0  0  0  0  0
    1.0777   -1.3515    0.0000 C   0  0  0  0  0  0  0  0  0  0  0  0
   -0.3846   -1.6852    0.0000 N   0  0  0  0  0  0  0  0  0  0  0  0
   -1.5574   -0.7500    0.0000 C   0  0  0  0  0  0  0  0  0  0  0  0
  1  2  1  0
  2  3  2  0
  3  4  1  0
  4  5  2  0
  5  6  1  0
  6  7  2  0
  7  8  1  0
  8  9  1  0
  9 10  1  0
 10 11  1  0
 11 12  1  0
 12 13  1  0
 13 14  1  0
 14 15  1  0
  7  2  1  0
 15  5  1  0
 11  6  1  0
M  END
>  <assay_chembl_id>  (699) 
CHEMBL4617355

>  <assay_description>  (699) 
Displacement of [125I]-1,4-Iodanyl-2,5-dimethoxyphenyl)propan-2amine from 5HT2B receptor (unknown origin)

>  <parent_molecule_chembl_id>  (699) 
CHEMBL4638807

>  <canonical_smiles>  (699) 
Clc1ccc2c3c1CCCN3CCNC2

>  <standard_type>  (699) 
Ki

>  <standard_relation>  (699) 
=

>  <standard_value>  (699) 
226.0

>  <standard_units>  (699) 
nM

>  <target_pref_name>  (699) 
Serotonin 2b (5-HT2b) receptor

>  <target_chembl_id>  (699) 
CHEMBL1833

>  <target_organism>  (699) 
Homo sapiens

>  <pchembl_median>  (699) 
6.15

$$$$
CHEMBL4648457
     RDKit          2D

 15 17  0  0  0  0  0  0  0  0999 V2000
   -2.2281    5.1997    0.0000 Cl  0  0  0  0  0  0  0  0  0  0  0  0
   -2.0045    3.7165    0.0000 C   0  0  0  0  0  0  0  0  0  0  0  0
   -3.1773    2.7813    0.0000 C   0  0  0  0  0  0  0  0  0  0  0  0
   -2.9537    1.2980    0.0000 C   0  0  0  0  0  0  0  0  0  0  0  0
   -1.5574    0.7500    0.0000 C   0  0  0  0  0  0  0  0  0  0  0  0
   -0.3846    1.6852    0.0000 C   0  0  0  0  0  0  0  0  0  0  0  0
   -0.6082    3.1685    0.0000 C   0  0  0  0  0  0  0  0  0  0  0  0
    0.4102    4.2762    0.0000 O   0  0  0  0  0  0  0  0  0  0  0  0
    1.8435    3.8341    0.0000 C   0  0  0  0  0  0  0  0  0  0  0  0
    2.1773    2.3717    0.0000 C   0  0  0  0  0  0  0  0  0  0  0  0
    1.0777    1.3515    0.0000 N   0  0  0  0  0  0  0  0  0  0  0  0
    1.7286    0.0000    0.0000 C   0  0  0  0  0  0  0  0  0  0  0  0
    1.0777   -1.3515    0.0000 C   0  0  0  0  0  0  0  0  0  0  0  0
   -0.3846   -1.6852    0.0000 N   0  0  0  0  0  0  0  0  0  0  0  0
   -1.5574   -0.7500    0.0000 C   0  0  0  0  0  0  0  0  0  0  0  0
  1  2  1  0
  2  3  2  0
  3  4  1  0
  4  5  2  0
  5  6  1  0
  6  7  2  0
  7  8  1  0
  8  9  1  0
  9 10  1  0
 10 11  1  0
 11 12  1  0
 12 13  1  0
 13 14  1  0
 14 15  1  0
  7  2  1  0
 15  5  1  0
 11  6  1  0
M  END
>  <assay_chembl_id>  (700) 
CHEMBL4617355

>  <assay_description>  (700) 
Displacement of [125I]-1,4-Iodanyl-2,5-dimethoxyphenyl)propan-2amine from 5HT2B receptor (unknown origin)

>  <parent_molecule_chembl_id>  (700) 
CHEMBL4648457

>  <canonical_smiles>  (700) 
Clc1ccc2c3c1OCCN3CCNC2

>  <standard_type>  (700) 
Ki

>  <standard_relation>  (700) 
=

>  <standard_value>  (700) 
360.0

>  <standard_units>  (700) 
nM

>  <target_pref_name>  (700) 
Serotonin 2b (5-HT2b) receptor

>  <target_chembl_id>  (700) 
CHEMBL1833

>  <target_organism>  (700) 
Homo sapiens

>  <pchembl_median>  (700) 
7.02

$$$$
CHEMBL4634836
     RDKit          2D

 15 17  0  0  0  0  0  0  0  0999 V2000
   -2.2281    5.1997    0.0000 Cl  0  0  0  0  0  0  0  0  0  0  0  0
   -2.0045    3.7165    0.0000 C   0  0  0  0  0  0  0  0  0  0  0  0
   -3.1773    2.7813    0.0000 C   0  0  0  0  0  0  0  0  0  0  0  0
   -2.9537    1.2980    0.0000 C   0  0  0  0  0  0  0  0  0  0  0  0
   -1.5574    0.7500    0.0000 C   0  0  0  0  0  0  0  0  0  0  0  0
   -0.3846    1.6852    0.0000 C   0  0  0  0  0  0  0  0  0  0  0  0
   -0.6082    3.1685    0.0000 C   0  0  0  0  0  0  0  0  0  0  0  0
    0.4102    4.2762    0.0000 S   0  0  0  0  0  0  0  0  0  0  0  0
    1.8435    3.8341    0.0000 C   0  0  0  0  0  0  0  0  0  0  0  0
    2.1773    2.3717    0.0000 C   0  0  0  0  0  0  0  0  0  0  0  0
    1.0777    1.3515    0.0000 N   0  0  0  0  0  0  0  0  0  0  0  0
    1.7286    0.0000    0.0000 C   0  0  0  0  0  0  0  0  0  0  0  0
    1.0777   -1.3515    0.0000 C   0  0  0  0  0  0  0  0  0  0  0  0
   -0.3846   -1.6852    0.0000 N   0  0  0  0  0  0  0  0  0  0  0  0
   -1.5574   -0.7500    0.0000 C   0  0  0  0  0  0  0  0  0  0  0  0
  1  2  1  0
  2  3  2  0
  3  4  1  0
  4  5  2  0
  5  6  1  0
  6  7  2  0
  7  8  1  0
  8  9  1  0
  9 10  1  0
 10 11  1  0
 11 12  1  0
 12 13  1  0
 13 14  1  0
 14 15  1  0
  7  2  1  0
 15  5  1  0
 11  6  1  0
M  END
>  <assay_chembl_id>  (701) 
CHEMBL4617355

>  <assay_description>  (701) 
Displacement of [125I]-1,4-Iodanyl-2,5-dimethoxyphenyl)propan-2amine from 5HT2B receptor (unknown origin)

>  <parent_molecule_chembl_id>  (701) 
CHEMBL4634836

>  <canonical_smiles>  (701) 
Clc1ccc2c3c1SCCN3CCNC2

>  <standard_type>  (701) 
Ki

>  <standard_relation>  (701) 
=

>  <standard_value>  (701) 
3730.0

>  <standard_units>  (701) 
nM

>  <target_pref_name>  (701) 
Serotonin 2b (5-HT2b) receptor

>  <target_chembl_id>  (701) 
CHEMBL1833

>  <target_organism>  (701) 
Homo sapiens

>  <pchembl_median>  (701) 
5.7

$$$$
CHEMBL4635293
     RDKit          2D

 16 18  0  0  0  0  0  0  0  0999 V2000
   -0.2487    5.6515    0.0000 O   0  0  0  0  0  1  0  0  0  0  0  0
    0.1935    4.2182    0.0000 S   0  0  0  0  0  3  0  0  0  0  0  0
    1.6559    3.8844    0.0000 C   0  0  0  0  0  0  0  0  0  0  0  0
    2.0980    2.4510    0.0000 C   0  0  0  0  0  0  0  0  0  0  0  0
    1.0777    1.3515    0.0000 N   0  0  0  0  0  0  0  0  0  0  0  0
    1.7286    0.0000    0.0000 C   0  0  0  0  0  0  0  0  0  0  0  0
    1.0777   -1.3515    0.0000 C   0  0  0  0  0  0  0  0  0  0  0  0
   -0.3846   -1.6852    0.0000 N   0  0  0  0  0  0  0  0  0  0  0  0
   -1.5574   -0.7500    0.0000 C   0  0  0  0  0  0  0  0  0  0  0  0
   -1.5574    0.7500    0.0000 C   0  0  0  0  0  0  0  0  0  0  0  0
   -3.0259    1.0781    0.0000 C   0  0  0  0  0  0  0  0  0  0  0  0
   -3.3597    2.5405    0.0000 C   0  0  0  0  0  0  0  0  0  0  0  0
   -2.2601    3.5607    0.0000 C   0  0  0  0  0  0  0  0  0  0  0  0
   -2.5939    5.0231    0.0000 Cl  0  0  0  0  0  0  0  0  0  0  0  0
   -0.8268    3.1186    0.0000 C   0  0  0  0  0  0  0  0  0  0  0  0
   -0.3846    1.6852    0.0000 C   0  0  0  0  0  0  0  0  0  0  0  0
  1  2  1  0
  2  3  1  0
  3  4  1  0
  4  5  1  0
  5  6  1  0
  6  7  1  0
  7  8  1  0
  8  9  1  0
  9 10  1  0
 10 11  1  0
 11 12  2  0
 12 13  1  0
 13 14  1  0
 13 15  2  0
 15 16  1  0
 15  2  1  0
 16  5  1  0
 16 10  2  0
M  CHG  2   1  -1   2   1
M  END
>  <assay_chembl_id>  (702) 
CHEMBL4617355

>  <assay_description>  (702) 
Displacement of [125I]-1,4-Iodanyl-2,5-dimethoxyphenyl)propan-2amine from 5HT2B receptor (unknown origin)

>  <parent_molecule_chembl_id>  (702) 
CHEMBL4635293

>  <canonical_smiles>  (702) 
[O-][S+]1CCN2CCNCc3ccc(Cl)c1c32

>  <standard_type>  (702) 
Ki

>  <standard_relation>  (702) 
=

>  <standard_value>  (702) 
442.0

>  <standard_units>  (702) 
nM

>  <target_pref_name>  (702) 
Serotonin 2b (5-HT2b) receptor

>  <target_chembl_id>  (702) 
CHEMBL1833

>  <target_organism>  (702) 
Homo sapiens

>  <pchembl_median>  (702) 
6.14

$$$$
CHEMBL4635854
     RDKit          2D

 14 16  0  0  0  0  0  0  0  0999 V2000
   -2.2281    5.1997    0.0000 Br  0  0  0  0  0  0  0  0  0  0  0  0
   -2.0045    3.7165    0.0000 C   0  0  0  0  0  0  0  0  0  0  0  0
   -3.1773    2.7813    0.0000 C   0  0  0  0  0  0  0  0  0  0  0  0
   -2.9537    1.2980    0.0000 C   0  0  0  0  0  0  0  0  0  0  0  0
   -1.5574    0.7500    0.0000 C   0  0  0  0  0  0  0  0  0  0  0  0
   -0.3846    1.6852    0.0000 C   0  0  0  0  0  0  0  0  0  0  0  0
   -0.6082    3.1685    0.0000 C   0  0  0  0  0  0  0  0  0  0  0  0
    0.7528    3.7990    0.0000 C   0  0  0  0  0  0  0  0  0  0  0  0
    1.7731    2.6994    0.0000 C   0  0  0  0  0  0  0  0  0  0  0  0
    1.0777    1.3515    0.0000 N   0  0  0  0  0  0  0  0  0  0  0  0
    1.7286    0.0000    0.0000 C   0  0  0  0  0  0  0  0  0  0  0  0
    1.0777   -1.3515    0.0000 C   0  0  0  0  0  0  0  0  0  0  0  0
   -0.3846   -1.6852    0.0000 N   0  0  0  0  0  0  0  0  0  0  0  0
   -1.5574   -0.7500    0.0000 C   0  0  0  0  0  0  0  0  0  0  0  0
  1  2  1  0
  2  3  2  0
  3  4  1  0
  4  5  2  0
  5  6  1  0
  6  7  2  0
  7  8  1  0
  8  9  1  0
  9 10  1  0
 10 11  1  0
 11 12  1  0
 12 13  1  0
 13 14  1  0
  7  2  1  0
 14  5  1  0
 10  6  1  0
M  END
>  <assay_chembl_id>  (703) 
CHEMBL4617355

>  <assay_description>  (703) 
Displacement of [125I]-1,4-Iodanyl-2,5-dimethoxyphenyl)propan-2amine from 5HT2B receptor (unknown origin)

>  <parent_molecule_chembl_id>  (703) 
CHEMBL4635854

>  <canonical_smiles>  (703) 
Brc1ccc2c3c1CCN3CCNC2

>  <standard_type>  (703) 
Ki

>  <standard_relation>  (703) 
=

>  <standard_value>  (703) 
127.0

>  <standard_units>  (703) 
nM

>  <target_pref_name>  (703) 
Serotonin 2b (5-HT2b) receptor

>  <target_chembl_id>  (703) 
CHEMBL1833

>  <target_organism>  (703) 
Homo sapiens

>  <pchembl_median>  (703) 
6.75

$$$$
CHEMBL4647417
     RDKit          2D

 17 19  0  0  0  0  0  0  0  0999 V2000
   -2.4516    6.6830    0.0000 F   0  0  0  0  0  0  0  0  0  0  0  0
   -2.2281    5.1997    0.0000 C   0  0  0  0  0  0  0  0  0  0  0  0
   -3.7113    4.9762    0.0000 F   0  0  0  0  0  0  0  0  0  0  0  0
   -0.7448    5.4233    0.0000 F   0  0  0  0  0  0  0  0  0  0  0  0
   -2.0045    3.7165    0.0000 C   0  0  0  0  0  0  0  0  0  0  0  0
   -3.1773    2.7813    0.0000 C   0  0  0  0  0  0  0  0  0  0  0  0
   -2.9537    1.2980    0.0000 C   0  0  0  0  0  0  0  0  0  0  0  0
   -1.5574    0.7500    0.0000 C   0  0  0  0  0  0  0  0  0  0  0  0
   -0.3846    1.6852    0.0000 C   0  0  0  0  0  0  0  0  0  0  0  0
   -0.6082    3.1685    0.0000 C   0  0  0  0  0  0  0  0  0  0  0  0
    0.7528    3.7990    0.0000 C   0  0  0  0  0  0  0  0  0  0  0  0
    1.7731    2.6994    0.0000 C   0  0  0  0  0  0  0  0  0  0  0  0
    1.0777    1.3515    0.0000 N   0  0  0  0  0  0  0  0  0  0  0  0
    1.7286    0.0000    0.0000 C   0  0  0  0  0  0  0  0  0  0  0  0
    1.0777   -1.3515    0.0000 C   0  0  0  0  0  0  0  0  0  0  0  0
   -0.3846   -1.6852    0.0000 N   0  0  0  0  0  0  0  0  0  0  0  0
   -1.5574   -0.7500    0.0000 C   0  0  0  0  0  0  0  0  0  0  0  0
  1  2  1  0
  2  3  1  0
  2  4  1  0
  2  5  1  0
  5  6  2  0
  6  7  1  0
  7  8  2  0
  8  9  1  0
  9 10  2  0
 10 11  1  0
 11 12  1  0
 12 13  1  0
 13 14  1  0
 14 15  1  0
 15 16  1  0
 16 17  1  0
 10  5  1  0
 17  8  1  0
 13  9  1  0
M  END
>  <assay_chembl_id>  (704) 
CHEMBL4617355

>  <assay_description>  (704) 
Displacement of [125I]-1,4-Iodanyl-2,5-dimethoxyphenyl)propan-2amine from 5HT2B receptor (unknown origin)

>  <parent_molecule_chembl_id>  (704) 
CHEMBL4647417

>  <canonical_smiles>  (704) 
FC(F)(F)c1ccc2c3c1CCN3CCNC2

>  <standard_type>  (704) 
Ki

>  <standard_relation>  (704) 
=

>  <standard_value>  (704) 
105.0

>  <standard_units>  (704) 
nM

>  <target_pref_name>  (704) 
Serotonin 2b (5-HT2b) receptor

>  <target_chembl_id>  (704) 
CHEMBL1833

>  <target_organism>  (704) 
Homo sapiens

>  <pchembl_median>  (704) 
6.72

$$$$
CHEMBL4639115
     RDKit          2D

 15 17  0  0  0  0  0  0  0  0999 V2000
   -3.6244    5.7478    0.0000 C   0  0  0  0  0  0  0  0  0  0  0  0
   -2.2281    5.1997    0.0000 O   0  0  0  0  0  0  0  0  0  0  0  0
   -2.0045    3.7165    0.0000 C   0  0  0  0  0  0  0  0  0  0  0  0
   -3.1773    2.7813    0.0000 C   0  0  0  0  0  0  0  0  0  0  0  0
   -2.9537    1.2980    0.0000 C   0  0  0  0  0  0  0  0  0  0  0  0
   -1.5574    0.7500    0.0000 C   0  0  0  0  0  0  0  0  0  0  0  0
   -0.3846    1.6852    0.0000 C   0  0  0  0  0  0  0  0  0  0  0  0
   -0.6082    3.1685    0.0000 C   0  0  0  0  0  0  0  0  0  0  0  0
    0.7528    3.7990    0.0000 C   0  0  0  0  0  0  0  0  0  0  0  0
    1.7731    2.6994    0.0000 C   0  0  0  0  0  0  0  0  0  0  0  0
    1.0777    1.3515    0.0000 N   0  0  0  0  0  0  0  0  0  0  0  0
    1.7286    0.0000    0.0000 C   0  0  0  0  0  0  0  0  0  0  0  0
    1.0777   -1.3515    0.0000 C   0  0  0  0  0  0  0  0  0  0  0  0
   -0.3846   -1.6852    0.0000 N   0  0  0  0  0  0  0  0  0  0  0  0
   -1.5574   -0.7500    0.0000 C   0  0  0  0  0  0  0  0  0  0  0  0
  1  2  1  0
  2  3  1  0
  3  4  2  0
  4  5  1  0
  5  6  2  0
  6  7  1  0
  7  8  2  0
  8  9  1  0
  9 10  1  0
 10 11  1  0
 11 12  1  0
 12 13  1  0
 13 14  1  0
 14 15  1  0
  8  3  1  0
 15  6  1  0
 11  7  1  0
M  END
>  <assay_chembl_id>  (705) 
CHEMBL4617355

>  <assay_description>  (705) 
Displacement of [125I]-1,4-Iodanyl-2,5-dimethoxyphenyl)propan-2amine from 5HT2B receptor (unknown origin)

>  <parent_molecule_chembl_id>  (705) 
CHEMBL4639115

>  <canonical_smiles>  (705) 
COc1ccc2c3c1CCN3CCNC2

>  <standard_type>  (705) 
Ki

>  <standard_relation>  (705) 
=

>  <standard_value>  (705) 
3500.0

>  <standard_units>  (705) 
nM

>  <target_pref_name>  (705) 
Serotonin 2b (5-HT2b) receptor

>  <target_chembl_id>  (705) 
CHEMBL1833

>  <target_organism>  (705) 
Homo sapiens

>  <pchembl_median>  (705) 
5.34

$$$$
CHEMBL4645736
     RDKit          2D

 20 23  0  0  0  0  0  0  0  0999 V2000
   -6.4170    6.8438    0.0000 C   0  0  0  0  0  0  0  0  0  0  0  0
   -5.2443    7.7790    0.0000 C   0  0  0  0  0  0  0  0  0  0  0  0
   -3.8480    7.2310    0.0000 C   0  0  0  0  0  0  0  0  0  0  0  0
   -3.6244    5.7478    0.0000 C   0  0  0  0  0  0  0  0  0  0  0  0
   -2.2281    5.1997    0.0000 C   0  0  0  0  0  0  0  0  0  0  0  0
   -2.0045    3.7165    0.0000 C   0  0  0  0  0  0  0  0  0  0  0  0
   -3.1773    2.7813    0.0000 C   0  0  0  0  0  0  0  0  0  0  0  0
   -2.9537    1.2980    0.0000 C   0  0  0  0  0  0  0  0  0  0  0  0
   -1.5574    0.7500    0.0000 C   0  0  0  0  0  0  0  0  0  0  0  0
   -0.3846    1.6852    0.0000 C   0  0  0  0  0  0  0  0  0  0  0  0
   -0.6082    3.1685    0.0000 C   0  0  0  0  0  0  0  0  0  0  0  0
    0.7528    3.7990    0.0000 C   0  0  0  0  0  0  0  0  0  0  0  0
    1.7731    2.6994    0.0000 C   0  0  0  0  0  0  0  0  0  0  0  0
    1.0777    1.3515    0.0000 N   0  0  0  0  0  0  0  0  0  0  0  0
    1.7286    0.0000    0.0000 C   0  0  0  0  0  0  0  0  0  0  0  0
    1.0777   -1.3515    0.0000 C   0  0  0  0  0  0  0  0  0  0  0  0
   -0.3846   -1.6852    0.0000 N   0  0  0  0  0  0  0  0  0  0  0  0
   -1.5574   -0.7500    0.0000 C   0  0  0  0  0  0  0  0  0  0  0  0
   -4.7971    4.8125    0.0000 C   0  0  0  0  0  0  0  0  0  0  0  0
   -6.1934    5.3605    0.0000 C   0  0  0  0  0  0  0  0  0  0  0  0
  1  2  2  0
  2  3  1  0
  3  4  2  0
  4  5  1  0
  5  6  1  0
  6  7  2  0
  7  8  1  0
  8  9  2  0
  9 10  1  0
 10 11  2  0
 11 12  1  0
 12 13  1  0
 13 14  1  0
 14 15  1  0
 15 16  1  0
 16 17  1  0
 17 18  1  0
  4 19  1  0
 19 20  2  0
 20  1  1  0
 11  6  1  0
 18  9  1  0
 14 10  1  0
M  END
>  <assay_chembl_id>  (706) 
CHEMBL4617355

>  <assay_description>  (706) 
Displacement of [125I]-1,4-Iodanyl-2,5-dimethoxyphenyl)propan-2amine from 5HT2B receptor (unknown origin)

>  <parent_molecule_chembl_id>  (706) 
CHEMBL4645736

>  <canonical_smiles>  (706) 
c1ccc(Cc2ccc3c4c2CCN4CCNC3)cc1

>  <standard_type>  (706) 
Ki

>  <standard_relation>  (706) 
=

>  <standard_value>  (706) 
925.0

>  <standard_units>  (706) 
nM

>  <target_pref_name>  (706) 
Serotonin 2b (5-HT2b) receptor

>  <target_chembl_id>  (706) 
CHEMBL1833

>  <target_organism>  (706) 
Homo sapiens

>  <pchembl_median>  (706) 
5.89

$$$$
CHEMBL4632419
     RDKit          2D

 14 16  0  0  0  0  0  0  0  0999 V2000
    1.1940    5.2311    0.0000 C   0  0  0  0  0  0  0  0  0  0  0  0
    0.8602    3.7687    0.0000 C   0  0  0  0  0  0  0  0  0  0  0  0
    1.8471    2.6391    0.0000 C   0  0  0  0  0  0  0  0  0  0  0  0
    1.0777    1.3515    0.0000 N   0  0  0  0  0  0  0  0  0  0  0  0
    1.7286    0.0000    0.0000 C   0  0  0  0  0  0  0  0  0  0  0  0
    1.0777   -1.3515    0.0000 C   0  0  0  0  0  0  0  0  0  0  0  0
   -0.3846   -1.6852    0.0000 N   0  0  0  0  0  0  0  0  0  0  0  0
   -1.5574   -0.7500    0.0000 C   0  0  0  0  0  0  0  0  0  0  0  0
   -1.5574    0.7500    0.0000 C   0  0  0  0  0  0  0  0  0  0  0  0
   -2.9195    1.3797    0.0000 C   0  0  0  0  0  0  0  0  0  0  0  0
   -3.0986    2.8690    0.0000 C   0  0  0  0  0  0  0  0  0  0  0  0
   -1.8984    3.7687    0.0000 C   0  0  0  0  0  0  0  0  0  0  0  0
   -0.5191    3.1792    0.0000 C   0  0  0  0  0  0  0  0  0  0  0  0
   -0.3846    1.6852    0.0000 C   0  0  0  0  0  0  0  0  0  0  0  0
  1  2  1  0
  2  3  1  0
  3  4  1  0
  4  5  1  0
  5  6  1  0
  6  7  1  0
  7  8  1  0
  8  9  1  0
  9 10  2  0
 10 11  1  0
 11 12  2  0
 12 13  1  0
 13 14  2  0
 13  2  1  0
 14  4  1  0
 14  9  1  0
M  END
>  <assay_chembl_id>  (707) 
CHEMBL4617355

>  <assay_description>  (707) 
Displacement of [125I]-1,4-Iodanyl-2,5-dimethoxyphenyl)propan-2amine from 5HT2B receptor (unknown origin)

>  <parent_molecule_chembl_id>  (707) 
CHEMBL4632419

>  <canonical_smiles>  (707) 
CC1CN2CCNCc3cccc1c32

>  <standard_type>  (707) 
Ki

>  <standard_relation>  (707) 
=

>  <standard_value>  (707) 
4350.0

>  <standard_units>  (707) 
nM

>  <target_pref_name>  (707) 
Serotonin 2b (5-HT2b) receptor

>  <target_chembl_id>  (707) 
CHEMBL1833

>  <target_organism>  (707) 
Homo sapiens

>  <pchembl_median>  (707) 
8.47

$$$$
CHEMBL4639970
     RDKit          2D

 18 20  0  0  0  0  0  0  0  0999 V2000
    4.0607    6.1154    0.0000 F   0  0  0  0  0  0  0  0  0  0  0  0
    2.6273    5.6733    0.0000 C   0  0  0  0  0  0  0  0  0  0  0  0
    2.1852    7.1066    0.0000 F   0  0  0  0  0  0  0  0  0  0  0  0
    3.0695    4.2399    0.0000 F   0  0  0  0  0  0  0  0  0  0  0  0
    1.1940    5.2311    0.0000 C   0  0  0  0  0  0  0  0  0  0  0  0
    0.8602    3.7687    0.0000 C   0  0  0  0  0  0  0  0  0  0  0  0
    1.8471    2.6391    0.0000 C   0  0  0  0  0  0  0  0  0  0  0  0
    1.0777    1.3515    0.0000 N   0  0  0  0  0  0  0  0  0  0  0  0
    1.7286    0.0000    0.0000 C   0  0  0  0  0  0  0  0  0  0  0  0
    1.0777   -1.3515    0.0000 C   0  0  0  0  0  0  0  0  0  0  0  0
   -0.3846   -1.6852    0.0000 N   0  0  0  0  0  0  0  0  0  0  0  0
   -1.5574   -0.7500    0.0000 C   0  0  0  0  0  0  0  0  0  0  0  0
   -1.5574    0.7500    0.0000 C   0  0  0  0  0  0  0  0  0  0  0  0
   -2.9195    1.3797    0.0000 C   0  0  0  0  0  0  0  0  0  0  0  0
   -3.0986    2.8690    0.0000 C   0  0  0  0  0  0  0  0  0  0  0  0
   -1.8984    3.7687    0.0000 C   0  0  0  0  0  0  0  0  0  0  0  0
   -0.5191    3.1792    0.0000 C   0  0  0  0  0  0  0  0  0  0  0  0
   -0.3846    1.6852    0.0000 C   0  0  0  0  0  0  0  0  0  0  0  0
  1  2  1  0
  2  3  1  0
  2  4  1  0
  2  5  1  0
  5  6  1  0
  6  7  1  0
  7  8  1  0
  8  9  1  0
  9 10  1  0
 10 11  1  0
 11 12  1  0
 12 13  1  0
 13 14  2  0
 14 15  1  0
 15 16  2  0
 16 17  1  0
 17 18  2  0
 17  6  1  0
 18  8  1  0
 18 13  1  0
M  END
>  <assay_chembl_id>  (708) 
CHEMBL4617355

>  <assay_description>  (708) 
Displacement of [125I]-1,4-Iodanyl-2,5-dimethoxyphenyl)propan-2amine from 5HT2B receptor (unknown origin)

>  <parent_molecule_chembl_id>  (708) 
CHEMBL4639970

>  <canonical_smiles>  (708) 
FC(F)(F)CC1CN2CCNCc3cccc1c32

>  <standard_type>  (708) 
Ki

>  <standard_relation>  (708) 
=

>  <standard_value>  (708) 
395.0

>  <standard_units>  (708) 
nM

>  <target_pref_name>  (708) 
Serotonin 2b (5-HT2b) receptor

>  <target_chembl_id>  (708) 
CHEMBL1833

>  <target_organism>  (708) 
Homo sapiens

>  <pchembl_median>  (708) 
6.5

$$$$
CHEMBL4645774
     RDKit          2D

 15 17  0  0  0  0  0  0  0  0999 V2000
    2.0868    4.6322    0.0000 C   0  0  0  0  0  0  0  0  0  0  0  0
    0.8602    3.7687    0.0000 C   0  0  0  0  0  0  0  0  0  0  0  0
    0.1297    5.0788    0.0000 C   0  0  0  0  0  0  0  0  0  0  0  0
    1.8471    2.6391    0.0000 C   0  0  0  0  0  0  0  0  0  0  0  0
    1.0777    1.3515    0.0000 N   0  0  0  0  0  0  0  0  0  0  0  0
    1.7286    0.0000    0.0000 C   0  0  0  0  0  0  0  0  0  0  0  0
    1.0777   -1.3515    0.0000 C   0  0  0  0  0  0  0  0  0  0  0  0
   -0.3846   -1.6852    0.0000 N   0  0  0  0  0  0  0  0  0  0  0  0
   -1.5574   -0.7500    0.0000 C   0  0  0  0  0  0  0  0  0  0  0  0
   -1.5574    0.7500    0.0000 C   0  0  0  0  0  0  0  0  0  0  0  0
   -2.9195    1.3797    0.0000 C   0  0  0  0  0  0  0  0  0  0  0  0
   -3.0986    2.8690    0.0000 C   0  0  0  0  0  0  0  0  0  0  0  0
   -1.8984    3.7687    0.0000 C   0  0  0  0  0  0  0  0  0  0  0  0
   -0.5191    3.1792    0.0000 C   0  0  0  0  0  0  0  0  0  0  0  0
   -0.3846    1.6852    0.0000 C   0  0  0  0  0  0  0  0  0  0  0  0
  1  2  1  0
  2  3  1  0
  2  4  1  0
  4  5  1  0
  5  6  1  0
  6  7  1  0
  7  8  1  0
  8  9  1  0
  9 10  1  0
 10 11  2  0
 11 12  1  0
 12 13  2  0
 13 14  1  0
 14 15  2  0
 14  2  1  0
 15  5  1  0
 15 10  1  0
M  END
>  <assay_chembl_id>  (709) 
CHEMBL4617355

>  <assay_description>  (709) 
Displacement of [125I]-1,4-Iodanyl-2,5-dimethoxyphenyl)propan-2amine from 5HT2B receptor (unknown origin)

>  <parent_molecule_chembl_id>  (709) 
CHEMBL4645774

>  <canonical_smiles>  (709) 
CC1(C)CN2CCNCc3cccc1c32

>  <standard_type>  (709) 
Ki

>  <standard_relation>  (709) 
=

>  <standard_value>  (709) 
1800.0

>  <standard_units>  (709) 
nM

>  <target_pref_name>  (709) 
Serotonin 2b (5-HT2b) receptor

>  <target_chembl_id>  (709) 
CHEMBL1833

>  <target_organism>  (709) 
Homo sapiens

>  <pchembl_median>  (709) 
6.02

$$$$
CHEMBL4636196
     RDKit          2D

 16 19  0  0  0  0  0  0  0  0999 V2000
   -3.6844   -2.7452    0.0000 C   0  0  0  0  0  0  0  0  0  0  0  0
   -3.2209   -4.1718    0.0000 C   0  0  0  0  0  0  0  0  0  0  0  0
   -1.7537   -4.4836    0.0000 C   0  0  0  0  0  0  0  0  0  0  0  0
   -0.7500   -3.3689    0.0000 C   0  0  0  0  0  0  0  0  0  0  0  0
   -1.2135   -1.9423    0.0000 C   0  0  0  0  0  0  0  0  0  0  0  0
   -2.6807   -1.6305    0.0000 C   0  0  0  0  0  0  0  0  0  0  0  0
   -0.0000   -1.0607    0.0000 C   0  0  0  0  0  0  0  0  0  0  0  0
    1.0607    0.0000    0.0000 C   0  0  0  0  0  0  0  0  0  0  0  0
    0.0000    1.0607    0.0000 C   0  0  0  0  0  0  0  0  0  0  0  0
   -1.0607    0.0000    0.0000 C   0  0  0  0  0  0  0  0  0  0  0  0
    1.2135   -1.9423    0.0000 C   0  0  0  0  0  0  0  0  0  0  0  0
    0.7500   -3.3689    0.0000 N   0  0  0  0  0  0  0  0  0  0  0  0
    1.6497   -4.5691    0.0000 C   0  0  0  0  0  0  0  0  0  0  0  0
    1.2724   -6.0209    0.0000 C   0  0  0  0  0  0  0  0  0  0  0  0
   -0.0980   -6.6310    0.0000 N   0  0  0  0  0  0  0  0  0  0  0  0
   -1.4293   -5.9400    0.0000 C   0  0  0  0  0  0  0  0  0  0  0  0
  1  2  2  0
  2  3  1  0
  3  4  2  0
  4  5  1  0
  5  6  2  0
  5  7  1  0
  7  8  1  0
  8  9  1  0
  9 10  1  0
  7 11  1  0
 11 12  1  0
 12 13  1  0
 13 14  1  0
 14 15  1  0
 15 16  1  0
  6  1  1  0
 10  7  1  0
 16  3  1  0
 12  4  1  0
M  END
>  <assay_chembl_id>  (710) 
CHEMBL4617355

>  <assay_description>  (710) 
Displacement of [125I]-1,4-Iodanyl-2,5-dimethoxyphenyl)propan-2amine from 5HT2B receptor (unknown origin)

>  <parent_molecule_chembl_id>  (710) 
CHEMBL4636196

>  <canonical_smiles>  (710) 
c1cc2c3c(c1)C1(CCC1)CN3CCNC2

>  <standard_type>  (710) 
Ki

>  <standard_relation>  (710) 
=

>  <standard_value>  (710) 
550.0

>  <standard_units>  (710) 
nM

>  <target_pref_name>  (710) 
Serotonin 2b (5-HT2b) receptor

>  <target_chembl_id>  (710) 
CHEMBL1833

>  <target_organism>  (710) 
Homo sapiens

>  <pchembl_median>  (710) 
6.2

$$$$
CHEMBL4646618
     RDKit          2D

 15 17  0  0  0  0  0  0  0  0999 V2000
   -2.2281    5.1997    0.0000 C   0  0  0  0  0  0  0  0  0  0  0  0
   -2.0045    3.7165    0.0000 C   0  0  0  0  0  0  0  0  0  0  0  0
   -3.1773    2.7813    0.0000 C   0  0  0  0  0  0  0  0  0  0  0  0
   -2.9537    1.2980    0.0000 C   0  0  0  0  0  0  0  0  0  0  0  0
   -1.5574    0.7500    0.0000 C   0  0  0  0  0  0  0  0  0  0  0  0
   -0.3846    1.6852    0.0000 C   0  0  0  0  0  0  0  0  0  0  0  0
   -0.6082    3.1685    0.0000 C   0  0  0  0  0  0  0  0  0  0  0  0
    0.7528    3.7990    0.0000 C   0  0  0  0  0  0  0  0  0  0  0  0
    1.0427    5.2707    0.0000 C   0  0  0  0  0  0  0  0  0  0  0  0
    1.7731    2.6994    0.0000 C   0  0  0  0  0  0  0  0  0  0  0  0
    1.0777    1.3515    0.0000 N   0  0  0  0  0  0  0  0  0  0  0  0
    1.7286    0.0000    0.0000 C   0  0  0  0  0  0  0  0  0  0  0  0
    1.0777   -1.3515    0.0000 C   0  0  0  0  0  0  0  0  0  0  0  0
   -0.3846   -1.6852    0.0000 N   0  0  0  0  0  0  0  0  0  0  0  0
   -1.5574   -0.7500    0.0000 C   0  0  0  0  0  0  0  0  0  0  0  0
  1  2  1  0
  2  3  2  0
  3  4  1  0
  4  5  2  0
  5  6  1  0
  6  7  2  0
  7  8  1  0
  8  9  1  0
  8 10  1  0
 10 11  1  0
 11 12  1  0
 12 13  1  0
 13 14  1  0
 14 15  1  0
  7  2  1  0
 15  5  1  0
 11  6  1  0
M  END
>  <assay_chembl_id>  (711) 
CHEMBL4617355

>  <assay_description>  (711) 
Displacement of [125I]-1,4-Iodanyl-2,5-dimethoxyphenyl)propan-2amine from 5HT2B receptor (unknown origin)

>  <parent_molecule_chembl_id>  (711) 
CHEMBL4646618

>  <canonical_smiles>  (711) 
Cc1ccc2c3c1C(C)CN3CCNC2

>  <standard_type>  (711) 
Ki

>  <standard_relation>  (711) 
=

>  <standard_value>  (711) 
22.0

>  <standard_units>  (711) 
nM

>  <target_pref_name>  (711) 
Serotonin 2b (5-HT2b) receptor

>  <target_chembl_id>  (711) 
CHEMBL1833

>  <target_organism>  (711) 
Homo sapiens

>  <pchembl_median>  (711) 
5.62

$$$$
CHEMBL4634942
     RDKit          2D

 15 17  0  0  0  0  0  0  0  0999 V2000
    1.1940    5.2311    0.0000 C   0  0  0  0  0  0  0  0  0  0  0  0
    0.8602    3.7687    0.0000 C   0  0  0  0  0  0  0  0  0  0  0  0
    1.8471    2.6391    0.0000 C   0  0  0  0  0  0  0  0  0  0  0  0
    1.0777    1.3515    0.0000 N   0  0  0  0  0  0  0  0  0  0  0  0
    1.7286    0.0000    0.0000 C   0  0  0  0  0  0  0  0  0  0  0  0
    1.0777   -1.3515    0.0000 C   0  0  0  0  0  0  0  0  0  0  0  0
   -0.3846   -1.6852    0.0000 N   0  0  0  0  0  0  0  0  0  0  0  0
   -1.5574   -0.7500    0.0000 C   0  0  0  0  0  0  0  0  0  0  0  0
   -1.5574    0.7500    0.0000 C   0  0  0  0  0  0  0  0  0  0  0  0
   -2.9195    1.3797    0.0000 C   0  0  0  0  0  0  0  0  0  0  0  0
   -3.0986    2.8690    0.0000 C   0  0  0  0  0  0  0  0  0  0  0  0
   -1.8984    3.7687    0.0000 C   0  0  0  0  0  0  0  0  0  0  0  0
   -2.0775    5.2580    0.0000 Cl  0  0  0  0  0  0  0  0  0  0  0  0
   -0.5191    3.1792    0.0000 C   0  0  0  0  0  0  0  0  0  0  0  0
   -0.3846    1.6852    0.0000 C   0  0  0  0  0  0  0  0  0  0  0  0
  1  2  1  0
  2  3  1  0
  3  4  1  0
  4  5  1  0
  5  6  1  0
  6  7  1  0
  7  8  1  0
  8  9  1  0
  9 10  2  0
 10 11  1  0
 11 12  2  0
 12 13  1  0
 12 14  1  0
 14 15  2  0
 14  2  1  0
 15  4  1  0
 15  9  1  0
M  END
>  <assay_chembl_id>  (712) 
CHEMBL4617355

>  <assay_description>  (712) 
Displacement of [125I]-1,4-Iodanyl-2,5-dimethoxyphenyl)propan-2amine from 5HT2B receptor (unknown origin)

>  <parent_molecule_chembl_id>  (712) 
CHEMBL4634942

>  <canonical_smiles>  (712) 
CC1CN2CCNCc3ccc(Cl)c1c32

>  <standard_type>  (712) 
Ki

>  <standard_relation>  (712) 
=

>  <standard_value>  (712) 
46.0

>  <standard_units>  (712) 
nM

>  <target_pref_name>  (712) 
Serotonin 2b (5-HT2b) receptor

>  <target_chembl_id>  (712) 
CHEMBL1833

>  <target_organism>  (712) 
Homo sapiens

>  <pchembl_median>  (712) 
7.5

$$$$
CHEMBL4639090
     RDKit          2D

 15 17  0  0  0  0  0  0  0  0999 V2000
    1.1940    5.2311    0.0000 C   0  0  0  0  0  0  0  0  0  0  0  0
    0.8602    3.7687    0.0000 C   0  0  0  0  0  0  0  0  0  0  0  0
    1.8471    2.6391    0.0000 C   0  0  0  0  0  0  0  0  0  0  0  0
    1.0777    1.3515    0.0000 N   0  0  0  0  0  0  0  0  0  0  0  0
    1.7286    0.0000    0.0000 C   0  0  0  0  0  0  0  0  0  0  0  0
    1.0777   -1.3515    0.0000 C   0  0  0  0  0  0  0  0  0  0  0  0
   -0.3846   -1.6852    0.0000 N   0  0  0  0  0  0  0  0  0  0  0  0
   -1.5574   -0.7500    0.0000 C   0  0  0  0  0  0  0  0  0  0  0  0
   -1.5574    0.7500    0.0000 C   0  0  0  0  0  0  0  0  0  0  0  0
   -2.9195    1.3797    0.0000 C   0  0  0  0  0  0  0  0  0  0  0  0
   -3.0986    2.8690    0.0000 C   0  0  0  0  0  0  0  0  0  0  0  0
   -1.8984    3.7687    0.0000 C   0  0  0  0  0  0  0  0  0  0  0  0
   -2.0775    5.2580    0.0000 Br  0  0  0  0  0  0  0  0  0  0  0  0
   -0.5191    3.1792    0.0000 C   0  0  0  0  0  0  0  0  0  0  0  0
   -0.3846    1.6852    0.0000 C   0  0  0  0  0  0  0  0  0  0  0  0
  1  2  1  0
  2  3  1  0
  3  4  1  0
  4  5  1  0
  5  6  1  0
  6  7  1  0
  7  8  1  0
  8  9  1  0
  9 10  2  0
 10 11  1  0
 11 12  2  0
 12 13  1  0
 12 14  1  0
 14 15  2  0
 14  2  1  0
 15  4  1  0
 15  9  1  0
M  END
>  <assay_chembl_id>  (713) 
CHEMBL4617355

>  <assay_description>  (713) 
Displacement of [125I]-1,4-Iodanyl-2,5-dimethoxyphenyl)propan-2amine from 5HT2B receptor (unknown origin)

>  <parent_molecule_chembl_id>  (713) 
CHEMBL4639090

>  <canonical_smiles>  (713) 
CC1CN2CCNCc3ccc(Br)c1c32

>  <standard_type>  (713) 
Ki

>  <standard_relation>  (713) 
=

>  <standard_value>  (713) 
21.0

>  <standard_units>  (713) 
nM

>  <target_pref_name>  (713) 
Serotonin 2b (5-HT2b) receptor

>  <target_chembl_id>  (713) 
CHEMBL1833

>  <target_organism>  (713) 
Homo sapiens

>  <pchembl_median>  (713) 
7.5

$$$$
CHEMBL4646572
     RDKit          2D

 19 21  0  0  0  0  0  0  0  0999 V2000
    4.0607    6.1154    0.0000 F   0  0  0  0  0  0  0  0  0  0  0  0
    2.6273    5.6733    0.0000 C   0  0  0  0  0  0  0  0  0  0  0  0
    2.1852    7.1066    0.0000 F   0  0  0  0  0  0  0  0  0  0  0  0
    3.0695    4.2399    0.0000 F   0  0  0  0  0  0  0  0  0  0  0  0
    1.1940    5.2311    0.0000 C   0  0  0  0  0  0  0  0  0  0  0  0
    0.8602    3.7687    0.0000 C   0  0  0  0  0  0  0  0  0  0  0  0
    1.8471    2.6391    0.0000 C   0  0  0  0  0  0  0  0  0  0  0  0
    1.0777    1.3515    0.0000 N   0  0  0  0  0  0  0  0  0  0  0  0
    1.7286    0.0000    0.0000 C   0  0  0  0  0  0  0  0  0  0  0  0
    1.0777   -1.3515    0.0000 C   0  0  0  0  0  0  0  0  0  0  0  0
   -0.3846   -1.6852    0.0000 N   0  0  0  0  0  0  0  0  0  0  0  0
   -1.5574   -0.7500    0.0000 C   0  0  0  0  0  0  0  0  0  0  0  0
   -1.5574    0.7500    0.0000 C   0  0  0  0  0  0  0  0  0  0  0  0
   -2.9195    1.3797    0.0000 C   0  0  0  0  0  0  0  0  0  0  0  0
   -3.0986    2.8690    0.0000 C   0  0  0  0  0  0  0  0  0  0  0  0
   -1.8984    3.7687    0.0000 C   0  0  0  0  0  0  0  0  0  0  0  0
   -2.0775    5.2580    0.0000 Br  0  0  0  0  0  0  0  0  0  0  0  0
   -0.5191    3.1792    0.0000 C   0  0  0  0  0  0  0  0  0  0  0  0
   -0.3846    1.6852    0.0000 C   0  0  0  0  0  0  0  0  0  0  0  0
  1  2  1  0
  2  3  1  0
  2  4  1  0
  2  5  1  0
  5  6  1  0
  6  7  1  0
  7  8  1  0
  8  9  1  0
  9 10  1  0
 10 11  1  0
 11 12  1  0
 12 13  1  0
 13 14  2  0
 14 15  1  0
 15 16  2  0
 16 17  1  0
 16 18  1  0
 18 19  2  0
 18  6  1  0
 19  8  1  0
 19 13  1  0
M  END
>  <assay_chembl_id>  (714) 
CHEMBL4617355

>  <assay_description>  (714) 
Displacement of [125I]-1,4-Iodanyl-2,5-dimethoxyphenyl)propan-2amine from 5HT2B receptor (unknown origin)

>  <parent_molecule_chembl_id>  (714) 
CHEMBL4646572

>  <canonical_smiles>  (714) 
FC(F)(F)CC1CN2CCNCc3ccc(Br)c1c32

>  <standard_type>  (714) 
Ki

>  <standard_relation>  (714) 
=

>  <standard_value>  (714) 
18.0

>  <standard_units>  (714) 
nM

>  <target_pref_name>  (714) 
Serotonin 2b (5-HT2b) receptor

>  <target_chembl_id>  (714) 
CHEMBL1833

>  <target_organism>  (714) 
Homo sapiens

>  <pchembl_median>  (714) 
5.5

$$$$
CHEMBL4632473
     RDKit          2D

 16 18  0  0  0  0  0  0  0  0999 V2000
    1.1940    5.2311    0.0000 C   0  0  0  0  0  0  0  0  0  0  0  0
    0.8602    3.7687    0.0000 C   0  0  0  0  0  0  0  0  0  0  0  0
    1.8471    2.6391    0.0000 C   0  0  0  0  0  0  0  0  0  0  0  0
    1.0777    1.3515    0.0000 N   0  0  0  0  0  0  0  0  0  0  0  0
    1.7286    0.0000    0.0000 C   0  0  0  0  0  0  0  0  0  0  0  0
    1.0777   -1.3515    0.0000 C   0  0  0  0  0  0  0  0  0  0  0  0
   -0.3846   -1.6852    0.0000 N   0  0  0  0  0  0  0  0  0  0  0  0
   -1.5574   -0.7500    0.0000 C   0  0  0  0  0  0  0  0  0  0  0  0
   -1.5574    0.7500    0.0000 C   0  0  0  0  0  0  0  0  0  0  0  0
   -2.9195    1.3797    0.0000 C   0  0  0  0  0  0  0  0  0  0  0  0
   -3.0986    2.8690    0.0000 C   0  0  0  0  0  0  0  0  0  0  0  0
   -4.4779    3.4585    0.0000 Cl  0  0  0  0  0  0  0  0  0  0  0  0
   -1.8984    3.7687    0.0000 C   0  0  0  0  0  0  0  0  0  0  0  0
   -2.0775    5.2580    0.0000 Cl  0  0  0  0  0  0  0  0  0  0  0  0
   -0.5191    3.1792    0.0000 C   0  0  0  0  0  0  0  0  0  0  0  0
   -0.3846    1.6852    0.0000 C   0  0  0  0  0  0  0  0  0  0  0  0
  1  2  1  0
  2  3  1  0
  3  4  1  0
  4  5  1  0
  5  6  1  0
  6  7  1  0
  7  8  1  0
  8  9  1  0
  9 10  2  0
 10 11  1  0
 11 12  1  0
 11 13  2  0
 13 14  1  0
 13 15  1  0
 15 16  2  0
 15  2  1  0
 16  4  1  0
 16  9  1  0
M  END
>  <assay_chembl_id>  (715) 
CHEMBL4617355

>  <assay_description>  (715) 
Displacement of [125I]-1,4-Iodanyl-2,5-dimethoxyphenyl)propan-2amine from 5HT2B receptor (unknown origin)

>  <parent_molecule_chembl_id>  (715) 
CHEMBL4632473

>  <canonical_smiles>  (715) 
CC1CN2CCNCc3cc(Cl)c(Cl)c1c32

>  <standard_type>  (715) 
Ki

>  <standard_relation>  (715) 
=

>  <standard_value>  (715) 
168.0

>  <standard_units>  (715) 
nM

>  <target_pref_name>  (715) 
Serotonin 2b (5-HT2b) receptor

>  <target_chembl_id>  (715) 
CHEMBL1833

>  <target_organism>  (715) 
Homo sapiens

>  <pchembl_median>  (715) 
7.69

$$$$
CHEMBL4644872
     RDKit          2D

 16 18  0  0  0  0  0  0  0  0999 V2000
   -4.5736    3.3293    0.0000 C   0  0  0  0  0  0  0  0  0  0  0  0
   -3.1773    2.7813    0.0000 C   0  0  0  0  0  0  0  0  0  0  0  0
   -2.9537    1.2980    0.0000 C   0  0  0  0  0  0  0  0  0  0  0  0
   -1.5574    0.7500    0.0000 C   0  0  0  0  0  0  0  0  0  0  0  0
   -0.3846    1.6852    0.0000 C   0  0  0  0  0  0  0  0  0  0  0  0
   -0.6082    3.1685    0.0000 C   0  0  0  0  0  0  0  0  0  0  0  0
   -2.0045    3.7165    0.0000 C   0  0  0  0  0  0  0  0  0  0  0  0
   -2.2281    5.1997    0.0000 Cl  0  0  0  0  0  0  0  0  0  0  0  0
    0.7528    3.7990    0.0000 C   0  0  0  0  0  0  0  0  0  0  0  0
    1.0427    5.2707    0.0000 C   0  0  0  0  0  0  0  0  0  0  0  0
    1.7731    2.6994    0.0000 C   0  0  0  0  0  0  0  0  0  0  0  0
    1.0777    1.3515    0.0000 N   0  0  0  0  0  0  0  0  0  0  0  0
    1.7286    0.0000    0.0000 C   0  0  0  0  0  0  0  0  0  0  0  0
    1.0777   -1.3515    0.0000 C   0  0  0  0  0  0  0  0  0  0  0  0
   -0.3846   -1.6852    0.0000 N   0  0  0  0  0  0  0  0  0  0  0  0
   -1.5574   -0.7500    0.0000 C   0  0  0  0  0  0  0  0  0  0  0  0
  1  2  1  0
  2  3  2  0
  3  4  1  0
  4  5  2  0
  5  6  1  0
  6  7  2  0
  7  8  1  0
  6  9  1  0
  9 10  1  0
  9 11  1  0
 11 12  1  0
 12 13  1  0
 13 14  1  0
 14 15  1  0
 15 16  1  0
  7  2  1  0
 16  4  1  0
 12  5  1  0
M  END
>  <assay_chembl_id>  (716) 
CHEMBL4617355

>  <assay_description>  (716) 
Displacement of [125I]-1,4-Iodanyl-2,5-dimethoxyphenyl)propan-2amine from 5HT2B receptor (unknown origin)

>  <parent_molecule_chembl_id>  (716) 
CHEMBL4644872

>  <canonical_smiles>  (716) 
Cc1cc2c3c(c1Cl)C(C)CN3CCNC2

>  <standard_type>  (716) 
Ki

>  <standard_relation>  (716) 
=

>  <standard_value>  (716) 
150.0

>  <standard_units>  (716) 
nM

>  <target_pref_name>  (716) 
Serotonin 2b (5-HT2b) receptor

>  <target_chembl_id>  (716) 
CHEMBL1833

>  <target_organism>  (716) 
Homo sapiens

>  <pchembl_median>  (716) 
6.86

$$$$
CHEMBL4636977
     RDKit          2D

 16 18  0  0  0  0  0  0  0  0999 V2000
    2.0868    4.6322    0.0000 C   0  0  0  0  0  0  0  0  0  0  0  0
    0.8602    3.7687    0.0000 C   0  0  0  0  0  0  0  0  0  0  0  0
    0.1297    5.0788    0.0000 C   0  0  0  0  0  0  0  0  0  0  0  0
    1.8471    2.6391    0.0000 C   0  0  0  0  0  0  0  0  0  0  0  0
    1.0777    1.3515    0.0000 N   0  0  0  0  0  0  0  0  0  0  0  0
    1.7286    0.0000    0.0000 C   0  0  0  0  0  0  0  0  0  0  0  0
    1.0777   -1.3515    0.0000 C   0  0  0  0  0  0  0  0  0  0  0  0
   -0.3846   -1.6852    0.0000 N   0  0  0  0  0  0  0  0  0  0  0  0
   -1.5574   -0.7500    0.0000 C   0  0  0  0  0  0  0  0  0  0  0  0
   -1.5574    0.7500    0.0000 C   0  0  0  0  0  0  0  0  0  0  0  0
   -2.9195    1.3797    0.0000 C   0  0  0  0  0  0  0  0  0  0  0  0
   -3.0986    2.8690    0.0000 C   0  0  0  0  0  0  0  0  0  0  0  0
   -1.8984    3.7687    0.0000 C   0  0  0  0  0  0  0  0  0  0  0  0
   -2.0775    5.2580    0.0000 Br  0  0  0  0  0  0  0  0  0  0  0  0
   -0.5191    3.1792    0.0000 C   0  0  0  0  0  0  0  0  0  0  0  0
   -0.3846    1.6852    0.0000 C   0  0  0  0  0  0  0  0  0  0  0  0
  1  2  1  0
  2  3  1  0
  2  4  1  0
  4  5  1  0
  5  6  1  0
  6  7  1  0
  7  8  1  0
  8  9  1  0
  9 10  1  0
 10 11  2  0
 11 12  1  0
 12 13  2  0
 13 14  1  0
 13 15  1  0
 15 16  2  0
 15  2  1  0
 16  5  1  0
 16 10  1  0
M  END
>  <assay_chembl_id>  (717) 
CHEMBL4617355

>  <assay_description>  (717) 
Displacement of [125I]-1,4-Iodanyl-2,5-dimethoxyphenyl)propan-2amine from 5HT2B receptor (unknown origin)

>  <parent_molecule_chembl_id>  (717) 
CHEMBL4636977

>  <canonical_smiles>  (717) 
CC1(C)CN2CCNCc3ccc(Br)c1c32

>  <standard_type>  (717) 
Ki

>  <standard_relation>  (717) 
=

>  <standard_value>  (717) 
28.0

>  <standard_units>  (717) 
nM

>  <target_pref_name>  (717) 
Serotonin 2b (5-HT2b) receptor

>  <target_chembl_id>  (717) 
CHEMBL1833

>  <target_organism>  (717) 
Homo sapiens

>  <pchembl_median>  (717) 
7.38

$$$$
CHEMBL4635105
     RDKit          2D

 16 18  0  0  0  0  0  0  0  0999 V2000
    2.0868    4.6322    0.0000 C   0  0  0  0  0  0  0  0  0  0  0  0
    0.8602    3.7687    0.0000 C   0  0  0  0  0  0  0  0  0  0  0  0
    0.1297    5.0788    0.0000 C   0  0  0  0  0  0  0  0  0  0  0  0
    1.8471    2.6391    0.0000 C   0  0  0  0  0  0  0  0  0  0  0  0
    1.0777    1.3515    0.0000 N   0  0  0  0  0  0  0  0  0  0  0  0
    1.7286    0.0000    0.0000 C   0  0  0  0  0  0  0  0  0  0  0  0
    1.0777   -1.3515    0.0000 C   0  0  0  0  0  0  0  0  0  0  0  0
   -0.3846   -1.6852    0.0000 N   0  0  0  0  0  0  0  0  0  0  0  0
   -1.5574   -0.7500    0.0000 C   0  0  0  0  0  0  0  0  0  0  0  0
   -1.5574    0.7500    0.0000 C   0  0  0  0  0  0  0  0  0  0  0  0
   -2.9195    1.3797    0.0000 C   0  0  0  0  0  0  0  0  0  0  0  0
   -3.0986    2.8690    0.0000 C   0  0  0  0  0  0  0  0  0  0  0  0
   -1.8984    3.7687    0.0000 C   0  0  0  0  0  0  0  0  0  0  0  0
   -2.0775    5.2580    0.0000 Cl  0  0  0  0  0  0  0  0  0  0  0  0
   -0.5191    3.1792    0.0000 C   0  0  0  0  0  0  0  0  0  0  0  0
   -0.3846    1.6852    0.0000 C   0  0  0  0  0  0  0  0  0  0  0  0
  1  2  1  0
  2  3  1  0
  2  4  1  0
  4  5  1  0
  5  6  1  0
  6  7  1  0
  7  8  1  0
  8  9  1  0
  9 10  1  0
 10 11  2  0
 11 12  1  0
 12 13  2  0
 13 14  1  0
 13 15  1  0
 15 16  2  0
 15  2  1  0
 16  5  1  0
 16 10  1  0
M  END
>  <assay_chembl_id>  (718) 
CHEMBL4617355

>  <assay_description>  (718) 
Displacement of [125I]-1,4-Iodanyl-2,5-dimethoxyphenyl)propan-2amine from 5HT2B receptor (unknown origin)

>  <parent_molecule_chembl_id>  (718) 
CHEMBL4635105

>  <canonical_smiles>  (718) 
CC1(C)CN2CCNCc3ccc(Cl)c1c32

>  <standard_type>  (718) 
Ki

>  <standard_relation>  (718) 
=

>  <standard_value>  (718) 
18.0

>  <standard_units>  (718) 
nM

>  <target_pref_name>  (718) 
Serotonin 2b (5-HT2b) receptor

>  <target_chembl_id>  (718) 
CHEMBL1833

>  <target_organism>  (718) 
Homo sapiens

>  <pchembl_median>  (718) 
7.21

$$$$
CHEMBL4637882
     RDKit          2D

 16 18  0  0  0  0  0  0  0  0999 V2000
    2.0868    4.6322    0.0000 C   0  0  0  0  0  0  0  0  0  0  0  0
    0.8602    3.7687    0.0000 C   0  0  0  0  0  0  0  0  0  0  0  0
    0.1297    5.0788    0.0000 C   0  0  0  0  0  0  0  0  0  0  0  0
    1.8471    2.6391    0.0000 C   0  0  0  0  0  0  0  0  0  0  0  0
    1.0777    1.3515    0.0000 N   0  0  0  0  0  0  0  0  0  0  0  0
    1.7286    0.0000    0.0000 C   0  0  0  0  0  0  0  0  0  0  0  0
    1.0777   -1.3515    0.0000 C   0  0  0  0  0  0  0  0  0  0  0  0
   -0.3846   -1.6852    0.0000 N   0  0  0  0  0  0  0  0  0  0  0  0
   -1.5574   -0.7500    0.0000 C   0  0  0  0  0  0  0  0  0  0  0  0
   -1.5574    0.7500    0.0000 C   0  0  0  0  0  0  0  0  0  0  0  0
   -2.9195    1.3797    0.0000 C   0  0  0  0  0  0  0  0  0  0  0  0
   -3.0986    2.8690    0.0000 C   0  0  0  0  0  0  0  0  0  0  0  0
   -1.8984    3.7687    0.0000 C   0  0  0  0  0  0  0  0  0  0  0  0
   -2.0775    5.2580    0.0000 F   0  0  0  0  0  0  0  0  0  0  0  0
   -0.5191    3.1792    0.0000 C   0  0  0  0  0  0  0  0  0  0  0  0
   -0.3846    1.6852    0.0000 C   0  0  0  0  0  0  0  0  0  0  0  0
  1  2  1  0
  2  3  1  0
  2  4  1  0
  4  5  1  0
  5  6  1  0
  6  7  1  0
  7  8  1  0
  8  9  1  0
  9 10  1  0
 10 11  2  0
 11 12  1  0
 12 13  2  0
 13 14  1  0
 13 15  1  0
 15 16  2  0
 15  2  1  0
 16  5  1  0
 16 10  1  0
M  END
>  <assay_chembl_id>  (719) 
CHEMBL4617355

>  <assay_description>  (719) 
Displacement of [125I]-1,4-Iodanyl-2,5-dimethoxyphenyl)propan-2amine from 5HT2B receptor (unknown origin)

>  <parent_molecule_chembl_id>  (719) 
CHEMBL4637882

>  <canonical_smiles>  (719) 
CC1(C)CN2CCNCc3ccc(F)c1c32

>  <standard_type>  (719) 
Ki

>  <standard_relation>  (719) 
=

>  <standard_value>  (719) 
320.0

>  <standard_units>  (719) 
nM

>  <target_pref_name>  (719) 
Serotonin 2b (5-HT2b) receptor

>  <target_chembl_id>  (719) 
CHEMBL1833

>  <target_organism>  (719) 
Homo sapiens

>  <pchembl_median>  (719) 
6.55

$$$$
CHEMBL4638879
     RDKit          2D

 16 18  0  0  0  0  0  0  0  0999 V2000
   -2.2281    5.1997    0.0000 C   0  0  0  0  0  0  0  0  0  0  0  0
   -2.0045    3.7165    0.0000 C   0  0  0  0  0  0  0  0  0  0  0  0
   -3.1773    2.7813    0.0000 C   0  0  0  0  0  0  0  0  0  0  0  0
   -2.9537    1.2980    0.0000 C   0  0  0  0  0  0  0  0  0  0  0  0
   -1.5574    0.7500    0.0000 C   0  0  0  0  0  0  0  0  0  0  0  0
   -0.3846    1.6852    0.0000 C   0  0  0  0  0  0  0  0  0  0  0  0
   -0.6082    3.1685    0.0000 C   0  0  0  0  0  0  0  0  0  0  0  0
    0.7528    3.7990    0.0000 C   0  0  0  0  0  0  0  0  0  0  0  0
   -0.0165    5.0867    0.0000 C   0  0  0  0  0  0  0  0  0  0  0  0
    1.9530    4.6987    0.0000 C   0  0  0  0  0  0  0  0  0  0  0  0
    1.7731    2.6994    0.0000 C   0  0  0  0  0  0  0  0  0  0  0  0
    1.0777    1.3515    0.0000 N   0  0  0  0  0  0  0  0  0  0  0  0
    1.7286    0.0000    0.0000 C   0  0  0  0  0  0  0  0  0  0  0  0
    1.0777   -1.3515    0.0000 C   0  0  0  0  0  0  0  0  0  0  0  0
   -0.3846   -1.6852    0.0000 N   0  0  0  0  0  0  0  0  0  0  0  0
   -1.5574   -0.7500    0.0000 C   0  0  0  0  0  0  0  0  0  0  0  0
  1  2  1  0
  2  3  2  0
  3  4  1  0
  4  5  2  0
  5  6  1  0
  6  7  2  0
  7  8  1  0
  8  9  1  0
  8 10  1  0
  8 11  1  0
 11 12  1  0
 12 13  1  0
 13 14  1  0
 14 15  1  0
 15 16  1  0
  7  2  1  0
 16  5  1  0
 12  6  1  0
M  END
>  <assay_chembl_id>  (720) 
CHEMBL4617355

>  <assay_description>  (720) 
Displacement of [125I]-1,4-Iodanyl-2,5-dimethoxyphenyl)propan-2amine from 5HT2B receptor (unknown origin)

>  <parent_molecule_chembl_id>  (720) 
CHEMBL4638879

>  <canonical_smiles>  (720) 
Cc1ccc2c3c1C(C)(C)CN3CCNC2

>  <standard_type>  (720) 
Ki

>  <standard_relation>  (720) 
=

>  <standard_value>  (720) 
24.0

>  <standard_units>  (720) 
nM

>  <target_pref_name>  (720) 
Serotonin 2b (5-HT2b) receptor

>  <target_chembl_id>  (720) 
CHEMBL1833

>  <target_organism>  (720) 
Homo sapiens

>  <pchembl_median>  (720) 
5.62

$$$$
CHEMBL4634785
     RDKit          2D

 17 20  0  0  0  0  0  0  0  0999 V2000
   -4.6883    2.2939    0.0000 C   0  0  0  0  0  0  0  0  0  0  0  0
   -4.3764    3.7611    0.0000 C   0  0  0  0  0  0  0  0  0  0  0  0
   -2.9499    4.2246    0.0000 C   0  0  0  0  0  0  0  0  0  0  0  0
   -2.9723    5.7244    0.0000 C   0  0  0  0  0  0  0  0  0  0  0  0
   -1.8137    6.6771    0.0000 N   0  0  0  0  0  0  0  0  0  0  0  0
   -0.3464    6.3653    0.0000 C   0  0  0  0  0  0  0  0  0  0  0  0
    0.3245    5.0237    0.0000 C   0  0  0  0  0  0  0  0  0  0  0  0
   -0.4086    3.6844    0.0000 N   0  0  0  0  0  0  0  0  0  0  0  0
    0.7062    2.6807    0.0000 C   0  0  0  0  0  0  0  0  0  0  0  0
    0.3943    1.2135    0.0000 C   0  0  0  0  0  0  0  0  0  0  0  0
    1.2760    0.0000    0.0000 C   0  0  0  0  0  0  0  0  0  0  0  0
    0.3943   -1.2135    0.0000 C   0  0  0  0  0  0  0  0  0  0  0  0
   -1.0323   -0.7500    0.0000 C   0  0  0  0  0  0  0  0  0  0  0  0
   -1.0323    0.7500    0.0000 C   0  0  0  0  0  0  0  0  0  0  0  0
   -2.1470    1.7537    0.0000 C   0  0  0  0  0  0  0  0  0  0  0  0
   -3.5736    1.2902    0.0000 C   0  0  0  0  0  0  0  0  0  0  0  0
   -1.8351    3.2209    0.0000 C   0  0  0  0  0  0  0  0  0  0  0  0
  1  2  2  0
  2  3  1  0
  3  4  1  0
  4  5  1  0
  5  6  1  0
  6  7  1  0
  7  8  1  0
  8  9  1  0
 10  9  1  6
 10 11  1  0
 11 12  1  0
 12 13  1  0
 14 13  1  6
 14 15  1  0
 15 16  2  0
 15 17  1  0
 16  1  1  0
 17  3  1  0
 17  8  1  0
 14 10  1  0
M  END
>  <assay_chembl_id>  (721) 
CHEMBL4617405

>  <assay_description>  (721) 
Displacement of [125I]-1,4-Iodanyl-2,5-dimethoxyphenyl)propan-2amine from recombinant human 5HT2B receptor expressed in CHO cells measured after 120 mins by scintillation counter method

>  <parent_molecule_chembl_id>  (721) 
CHEMBL4634785

>  <canonical_smiles>  (721) 
C1=CC2CNCCN3C[C@@H]4CCC[C@@H]4C(=C1)C23

>  <standard_type>  (721) 
Ki

>  <standard_relation>  (721) 
=

>  <standard_value>  (721) 
13.8

>  <standard_units>  (721) 
nM

>  <target_pref_name>  (721) 
Serotonin 2b (5-HT2b) receptor

>  <target_chembl_id>  (721) 
CHEMBL1833

>  <target_organism>  (721) 
Homo sapiens

>  <pchembl_median>  (721) 
7.89

$$$$
CHEMBL4753511
     RDKit          2D

 20 22  0  0  0  0  0  0  0  0999 V2000
    0.0944    6.2514    0.0000 C   0  0  0  0  0  0  0  0  0  0  0  0
    1.1940    5.2311    0.0000 C   0  0  0  0  0  0  0  0  0  0  0  0
    2.6273    5.6733    0.0000 C   0  0  0  0  0  0  0  0  0  0  0  0
    0.8602    3.7687    0.0000 N   0  0  0  0  0  0  0  0  0  0  0  0
   -0.5191    3.1792    0.0000 N   0  0  0  0  0  0  0  0  0  0  0  0
   -0.3846    1.6852    0.0000 C   0  0  0  0  0  0  0  0  0  0  0  0
    1.0777    1.3515    0.0000 C   0  0  0  0  0  0  0  0  0  0  0  0
    1.8471    2.6391    0.0000 C   0  0  0  0  0  0  0  0  0  0  0  0
    3.3411    2.7736    0.0000 C   0  0  0  0  0  0  0  0  0  0  0  0
    4.2045    1.5470    0.0000 C   0  0  0  0  0  0  0  0  0  0  0  0
    5.6984    1.6815    0.0000 C   0  0  0  0  0  0  0  0  0  0  0  0
    6.3290    3.0425    0.0000 C   0  0  0  0  0  0  0  0  0  0  0  0
    7.8229    3.1770    0.0000 F   0  0  0  0  0  0  0  0  0  0  0  0
    5.4656    4.2691    0.0000 C   0  0  0  0  0  0  0  0  0  0  0  0
    3.9716    4.1346    0.0000 C   0  0  0  0  0  0  0  0  0  0  0  0
    1.7286    0.0000    0.0000 C   0  0  0  0  0  0  0  0  0  0  0  0
    1.0777   -1.3515    0.0000 C   0  0  0  0  0  0  0  0  0  0  0  0
   -0.3846   -1.6852    0.0000 N   0  0  0  0  0  0  0  0  0  0  0  0
   -1.5574   -0.7500    0.0000 C   0  0  0  0  0  0  0  0  0  0  0  0
   -1.5574    0.7500    0.0000 C   0  0  0  0  0  0  0  0  0  0  0  0
  1  2  1  0
  2  3  1  0
  2  4  1  0
  4  5  1  0
  5  6  2  0
  6  7  1  0
  7  8  2  0
  8  9  1  0
  9 10  2  0
 10 11  1  0
 11 12  2  0
 12 13  1  0
 12 14  1  0
 14 15  2  0
  7 16  1  0
 16 17  1  0
 17 18  1  0
 18 19  1  0
 19 20  1  0
  8  4  1  0
 15  9  1  0
 20  6  1  0
M  END
>  <assay_chembl_id>  (722) 
CHEMBL4677344

>  <assay_description>  (722) 
Displacement of [3H]-ketanserin from human 5-HT2B receptor by competitive radioligand binding assay

>  <parent_molecule_chembl_id>  (722) 
CHEMBL4753511

>  <canonical_smiles>  (722) 
CC(C)n1nc2c(c1-c1ccc(F)cc1)CCNCC2

>  <standard_type>  (722) 
Ki

>  <standard_relation>  (722) 
=

>  <standard_value>  (722) 
25.12

>  <standard_units>  (722) 
nM

>  <target_pref_name>  (722) 
Serotonin 2b (5-HT2b) receptor

>  <target_chembl_id>  (722) 
CHEMBL1833

>  <target_organism>  (722) 
Homo sapiens

>  <pchembl_median>  (722) 
7.0

$$$$
CHEMBL4789085
     RDKit          2D

 21 23  0  0  0  0  0  0  0  0999 V2000
   -5.6474    7.7564    0.0000 C   0  0  0  0  0  0  0  0  0  0  0  0
   -5.6698    6.2566    0.0000 N   0  0  0  0  0  0  0  0  0  0  0  0
   -4.3821    5.4872    0.0000 C   0  0  0  0  0  0  0  0  0  0  0  0
   -3.0720    6.2177    0.0000 C   0  0  0  0  0  0  0  0  0  0  0  0
   -1.7843    5.4484    0.0000 C   0  0  0  0  0  0  0  0  0  0  0  0
   -1.8068    3.9485    0.0000 C   0  0  0  0  0  0  0  0  0  0  0  0
   -0.5191    3.1792    0.0000 C   0  0  0  0  0  0  0  0  0  0  0  0
   -0.3846    1.6852    0.0000 C   0  0  0  0  0  0  0  0  0  0  0  0
    1.0777    1.3515    0.0000 C   0  0  0  0  0  0  0  0  0  0  0  0
    1.8471    2.6391    0.0000 N   0  0  0  0  0  0  0  0  0  0  0  0
    0.8602    3.7687    0.0000 N   0  0  0  0  0  0  0  0  0  0  0  0
    1.1940    5.2311    0.0000 C   0  0  0  0  0  0  0  0  0  0  0  0
    2.6273    5.6733    0.0000 C   0  0  0  0  0  0  0  0  0  0  0  0
    0.0944    6.2514    0.0000 C   0  0  0  0  0  0  0  0  0  0  0  0
    1.7286    0.0000    0.0000 C   0  0  0  0  0  0  0  0  0  0  0  0
    1.0777   -1.3515    0.0000 C   0  0  0  0  0  0  0  0  0  0  0  0
   -0.3846   -1.6852    0.0000 N   0  0  0  0  0  0  0  0  0  0  0  0
   -1.5574   -0.7500    0.0000 C   0  0  0  0  0  0  0  0  0  0  0  0
   -1.5574    0.7500    0.0000 C   0  0  0  0  0  0  0  0  0  0  0  0
   -3.1169    3.2181    0.0000 C   0  0  0  0  0  0  0  0  0  0  0  0
   -4.4046    3.9874    0.0000 C   0  0  0  0  0  0  0  0  0  0  0  0
  1  2  1  0
  2  3  1  0
  3  4  2  0
  4  5  1  0
  5  6  2  0
  6  7  1  0
  7  8  2  0
  8  9  1  0
  9 10  2  0
 10 11  1  0
 11 12  1  0
 12 13  1  0
 12 14  1  0
  9 15  1  0
 15 16  1  0
 16 17  1  0
 17 18  1  0
 18 19  1  0
  6 20  1  0
 20 21  2  0
 21  3  1  0
 11  7  1  0
 19  8  1  0
M  END
>  <assay_chembl_id>  (723) 
CHEMBL4677344

>  <assay_description>  (723) 
Displacement of [3H]-ketanserin from human 5-HT2B receptor by competitive radioligand binding assay

>  <parent_molecule_chembl_id>  (723) 
CHEMBL4789085

>  <canonical_smiles>  (723) 
CNc1ccc(-c2c3c(nn2C(C)C)CCNCC3)cc1

>  <standard_type>  (723) 
Ki

>  <standard_relation>  (723) 
=

>  <standard_value>  (723) 
24.0

>  <standard_units>  (723) 
nM

>  <target_pref_name>  (723) 
Serotonin 2b (5-HT2b) receptor

>  <target_chembl_id>  (723) 
CHEMBL1833

>  <target_organism>  (723) 
Homo sapiens

>  <pchembl_median>  (723) 
6.23

$$$$
CHEMBL4782005
     RDKit          2D

 21 24  0  0  0  0  0  0  0  0999 V2000
   -5.6698    6.2566    0.0000 F   0  0  0  0  0  0  0  0  0  0  0  0
   -4.3821    5.4872    0.0000 C   0  0  0  0  0  0  0  0  0  0  0  0
   -3.0720    6.2177    0.0000 C   0  0  0  0  0  0  0  0  0  0  0  0
   -1.7843    5.4484    0.0000 C   0  0  0  0  0  0  0  0  0  0  0  0
   -1.8068    3.9485    0.0000 C   0  0  0  0  0  0  0  0  0  0  0  0
   -0.5191    3.1792    0.0000 C   0  0  0  0  0  0  0  0  0  0  0  0
   -0.3846    1.6852    0.0000 C   0  0  0  0  0  0  0  0  0  0  0  0
    1.0777    1.3515    0.0000 C   0  0  0  0  0  0  0  0  0  0  0  0
    1.8471    2.6391    0.0000 N   0  0  0  0  0  0  0  0  0  0  0  0
    0.8602    3.7687    0.0000 N   0  0  0  0  0  0  0  0  0  0  0  0
    1.1940    5.2311    0.0000 C   0  0  0  0  0  0  0  0  0  0  0  0
    2.4641    6.0292    0.0000 C   0  0  0  0  0  0  0  0  0  0  0  0
    1.6660    7.2993    0.0000 C   0  0  0  0  0  0  0  0  0  0  0  0
    0.3959    6.5012    0.0000 C   0  0  0  0  0  0  0  0  0  0  0  0
    1.7286    0.0000    0.0000 C   0  0  0  0  0  0  0  0  0  0  0  0
    1.0777   -1.3515    0.0000 C   0  0  0  0  0  0  0  0  0  0  0  0
   -0.3846   -1.6852    0.0000 N   0  0  0  0  0  0  0  0  0  0  0  0
   -1.5574   -0.7500    0.0000 C   0  0  0  0  0  0  0  0  0  0  0  0
   -1.5574    0.7500    0.0000 C   0  0  0  0  0  0  0  0  0  0  0  0
   -3.1169    3.2181    0.0000 C   0  0  0  0  0  0  0  0  0  0  0  0
   -4.4046    3.9874    0.0000 C   0  0  0  0  0  0  0  0  0  0  0  0
  1  2  1  0
  2  3  2  0
  3  4  1  0
  4  5  2  0
  5  6  1  0
  6  7  2  0
  7  8  1  0
  8  9  2  0
  9 10  1  0
 10 11  1  0
 11 12  1  0
 12 13  1  0
 13 14  1  0
  8 15  1  0
 15 16  1  0
 16 17  1  0
 17 18  1  0
 18 19  1  0
  5 20  1  0
 20 21  2  0
 21  2  1  0
 10  6  1  0
 14 11  1  0
 19  7  1  0
M  END
>  <assay_chembl_id>  (724) 
CHEMBL4677344

>  <assay_description>  (724) 
Displacement of [3H]-ketanserin from human 5-HT2B receptor by competitive radioligand binding assay

>  <parent_molecule_chembl_id>  (724) 
CHEMBL4782005

>  <canonical_smiles>  (724) 
Fc1ccc(-c2c3c(nn2C2CCC2)CCNCC3)cc1

>  <standard_type>  (724) 
Ki

>  <standard_relation>  (724) 
=

>  <standard_value>  (724) 
4.0

>  <standard_units>  (724) 
nM

>  <target_pref_name>  (724) 
Serotonin 2b (5-HT2b) receptor

>  <target_chembl_id>  (724) 
CHEMBL1833

>  <target_organism>  (724) 
Homo sapiens

>  <pchembl_median>  (724) 
7.68

$$$$
CHEMBL4762886
     RDKit          2D

 20 23  0  0  0  0  0  0  0  0999 V2000
   -5.6698    6.2566    0.0000 F   0  0  0  0  0  0  0  0  0  0  0  0
   -4.3821    5.4872    0.0000 C   0  0  0  0  0  0  0  0  0  0  0  0
   -3.0720    6.2177    0.0000 C   0  0  0  0  0  0  0  0  0  0  0  0
   -1.7843    5.4484    0.0000 C   0  0  0  0  0  0  0  0  0  0  0  0
   -1.8068    3.9485    0.0000 C   0  0  0  0  0  0  0  0  0  0  0  0
   -0.5191    3.1792    0.0000 C   0  0  0  0  0  0  0  0  0  0  0  0
   -0.3846    1.6852    0.0000 C   0  0  0  0  0  0  0  0  0  0  0  0
    1.0777    1.3515    0.0000 C   0  0  0  0  0  0  0  0  0  0  0  0
    1.8471    2.6391    0.0000 N   0  0  0  0  0  0  0  0  0  0  0  0
    0.8602    3.7687    0.0000 N   0  0  0  0  0  0  0  0  0  0  0  0
    1.1940    5.2311    0.0000 C   0  0  0  0  0  0  0  0  0  0  0  0
    0.7518    6.6645    0.0000 C   0  0  0  0  0  0  0  0  0  0  0  0
    2.2142    6.3307    0.0000 C   0  0  0  0  0  0  0  0  0  0  0  0
    1.7286    0.0000    0.0000 C   0  0  0  0  0  0  0  0  0  0  0  0
    1.0777   -1.3515    0.0000 C   0  0  0  0  0  0  0  0  0  0  0  0
   -0.3846   -1.6852    0.0000 N   0  0  0  0  0  0  0  0  0  0  0  0
   -1.5574   -0.7500    0.0000 C   0  0  0  0  0  0  0  0  0  0  0  0
   -1.5574    0.7500    0.0000 C   0  0  0  0  0  0  0  0  0  0  0  0
   -3.1169    3.2181    0.0000 C   0  0  0  0  0  0  0  0  0  0  0  0
   -4.4046    3.9874    0.0000 C   0  0  0  0  0  0  0  0  0  0  0  0
  1  2  1  0
  2  3  2  0
  3  4  1  0
  4  5  2  0
  5  6  1  0
  6  7  2  0
  7  8  1  0
  8  9  2  0
  9 10  1  0
 10 11  1  0
 11 12  1  0
 12 13  1  0
  8 14  1  0
 14 15  1  0
 15 16  1  0
 16 17  1  0
 17 18  1  0
  5 19  1  0
 19 20  2  0
 20  2  1  0
 10  6  1  0
 13 11  1  0
 18  7  1  0
M  END
>  <assay_chembl_id>  (725) 
CHEMBL4677344

>  <assay_description>  (725) 
Displacement of [3H]-ketanserin from human 5-HT2B receptor by competitive radioligand binding assay

>  <parent_molecule_chembl_id>  (725) 
CHEMBL4762886

>  <canonical_smiles>  (725) 
Fc1ccc(-c2c3c(nn2C2CC2)CCNCC3)cc1

>  <standard_type>  (725) 
Ki

>  <standard_relation>  (725) 
=

>  <standard_value>  (725) 
20.0

>  <standard_units>  (725) 
nM

>  <target_pref_name>  (725) 
Serotonin 2b (5-HT2b) receptor

>  <target_chembl_id>  (725) 
CHEMBL1833

>  <target_organism>  (725) 
Homo sapiens

>  <pchembl_median>  (725) 
7.01

$$$$
CHEMBL4745055
     RDKit          2D

 21 23  0  0  0  0  0  0  0  0999 V2000
    0.0944    6.2514    0.0000 C   0  0  0  0  0  0  0  0  0  0  0  0
    1.1940    5.2311    0.0000 C   0  0  0  0  0  0  0  0  0  0  0  0
    2.6273    5.6733    0.0000 C   0  0  0  0  0  0  0  0  0  0  0  0
    0.8602    3.7687    0.0000 N   0  0  0  0  0  0  0  0  0  0  0  0
   -0.5191    3.1792    0.0000 N   0  0  0  0  0  0  0  0  0  0  0  0
   -0.3846    1.6852    0.0000 C   0  0  0  0  0  0  0  0  0  0  0  0
    1.0777    1.3515    0.0000 C   0  0  0  0  0  0  0  0  0  0  0  0
    1.8471    2.6391    0.0000 C   0  0  0  0  0  0  0  0  0  0  0  0
    3.3411    2.7736    0.0000 C   0  0  0  0  0  0  0  0  0  0  0  0
    3.9716    4.1346    0.0000 C   0  0  0  0  0  0  0  0  0  0  0  0
    5.4656    4.2691    0.0000 C   0  0  0  0  0  0  0  0  0  0  0  0
    6.3290    3.0425    0.0000 C   0  0  0  0  0  0  0  0  0  0  0  0
    7.8229    3.1770    0.0000 Cl  0  0  0  0  0  0  0  0  0  0  0  0
    5.6984    1.6815    0.0000 C   0  0  0  0  0  0  0  0  0  0  0  0
    4.2045    1.5470    0.0000 C   0  0  0  0  0  0  0  0  0  0  0  0
    3.5739    0.1860    0.0000 Cl  0  0  0  0  0  0  0  0  0  0  0  0
    1.7286    0.0000    0.0000 C   0  0  0  0  0  0  0  0  0  0  0  0
    1.0777   -1.3515    0.0000 C   0  0  0  0  0  0  0  0  0  0  0  0
   -0.3846   -1.6852    0.0000 N   0  0  0  0  0  0  0  0  0  0  0  0
   -1.5574   -0.7500    0.0000 C   0  0  0  0  0  0  0  0  0  0  0  0
   -1.5574    0.7500    0.0000 C   0  0  0  0  0  0  0  0  0  0  0  0
  1  2  1  0
  2  3  1  0
  2  4  1  0
  4  5  1  0
  5  6  2  0
  6  7  1  0
  7  8  2  0
  8  9  1  0
  9 10  2  0
 10 11  1  0
 11 12  2  0
 12 13  1  0
 12 14  1  0
 14 15  2  0
 15 16  1  0
  7 17  1  0
 17 18  1  0
 18 19  1  0
 19 20  1  0
 20 21  1  0
  8  4  1  0
 15  9  1  0
 21  6  1  0
M  END
>  <assay_chembl_id>  (726) 
CHEMBL4677344

>  <assay_description>  (726) 
Displacement of [3H]-ketanserin from human 5-HT2B receptor by competitive radioligand binding assay

>  <parent_molecule_chembl_id>  (726) 
CHEMBL4745055

>  <canonical_smiles>  (726) 
CC(C)n1nc2c(c1-c1ccc(Cl)cc1Cl)CCNCC2

>  <standard_type>  (726) 
Ki

>  <standard_relation>  (726) 
=

>  <standard_value>  (726) 
43.0

>  <standard_units>  (726) 
nM

>  <target_pref_name>  (726) 
Serotonin 2b (5-HT2b) receptor

>  <target_chembl_id>  (726) 
CHEMBL1833

>  <target_organism>  (726) 
Homo sapiens

>  <pchembl_median>  (726) 
6.37

$$$$
CHEMBL4764808
     RDKit          2D

 21 23  0  0  0  0  0  0  0  0999 V2000
    0.0944    6.2514    0.0000 C   0  0  0  0  0  0  0  0  0  0  0  0
    1.1940    5.2311    0.0000 C   0  0  0  0  0  0  0  0  0  0  0  0
    2.6273    5.6733    0.0000 C   0  0  0  0  0  0  0  0  0  0  0  0
    0.8602    3.7687    0.0000 N   0  0  0  0  0  0  0  0  0  0  0  0
   -0.5191    3.1792    0.0000 N   0  0  0  0  0  0  0  0  0  0  0  0
   -0.3846    1.6852    0.0000 C   0  0  0  0  0  0  0  0  0  0  0  0
    1.0777    1.3515    0.0000 C   0  0  0  0  0  0  0  0  0  0  0  0
    1.8471    2.6391    0.0000 C   0  0  0  0  0  0  0  0  0  0  0  0
    3.3411    2.7736    0.0000 C   0  0  0  0  0  0  0  0  0  0  0  0
    4.2045    1.5470    0.0000 C   0  0  0  0  0  0  0  0  0  0  0  0
    5.6984    1.6815    0.0000 C   0  0  0  0  0  0  0  0  0  0  0  0
    6.3290    3.0425    0.0000 C   0  0  0  0  0  0  0  0  0  0  0  0
    7.8229    3.1770    0.0000 Cl  0  0  0  0  0  0  0  0  0  0  0  0
    5.4656    4.2691    0.0000 C   0  0  0  0  0  0  0  0  0  0  0  0
    6.0961    5.6301    0.0000 Cl  0  0  0  0  0  0  0  0  0  0  0  0
    3.9716    4.1346    0.0000 C   0  0  0  0  0  0  0  0  0  0  0  0
    1.7286    0.0000    0.0000 C   0  0  0  0  0  0  0  0  0  0  0  0
    1.0777   -1.3515    0.0000 C   0  0  0  0  0  0  0  0  0  0  0  0
   -0.3846   -1.6852    0.0000 N   0  0  0  0  0  0  0  0  0  0  0  0
   -1.5574   -0.7500    0.0000 C   0  0  0  0  0  0  0  0  0  0  0  0
   -1.5574    0.7500    0.0000 C   0  0  0  0  0  0  0  0  0  0  0  0
  1  2  1  0
  2  3  1  0
  2  4  1  0
  4  5  1  0
  5  6  2  0
  6  7  1  0
  7  8  2  0
  8  9  1  0
  9 10  2  0
 10 11  1  0
 11 12  2  0
 12 13  1  0
 12 14  1  0
 14 15  1  0
 14 16  2  0
  7 17  1  0
 17 18  1  0
 18 19  1  0
 19 20  1  0
 20 21  1  0
  8  4  1  0
 16  9  1  0
 21  6  1  0
M  END
>  <assay_chembl_id>  (727) 
CHEMBL4677344

>  <assay_description>  (727) 
Displacement of [3H]-ketanserin from human 5-HT2B receptor by competitive radioligand binding assay

>  <parent_molecule_chembl_id>  (727) 
CHEMBL4764808

>  <canonical_smiles>  (727) 
CC(C)n1nc2c(c1-c1ccc(Cl)c(Cl)c1)CCNCC2

>  <standard_type>  (727) 
Ki

>  <standard_relation>  (727) 
=

>  <standard_value>  (727) 
31.0

>  <standard_units>  (727) 
nM

>  <target_pref_name>  (727) 
Serotonin 2b (5-HT2b) receptor

>  <target_chembl_id>  (727) 
CHEMBL1833

>  <target_organism>  (727) 
Homo sapiens

>  <pchembl_median>  (727) 
7.11

$$$$
CHEMBL4760784
     RDKit          2D

 24 26  0  0  0  0  0  0  0  0999 V2000
    0.0944    6.2514    0.0000 C   0  0  0  0  0  0  0  0  0  0  0  0
    1.1940    5.2311    0.0000 C   0  0  0  0  0  0  0  0  0  0  0  0
    2.6273    5.6733    0.0000 C   0  0  0  0  0  0  0  0  0  0  0  0
    0.8602    3.7687    0.0000 N   0  0  0  0  0  0  0  0  0  0  0  0
   -0.5191    3.1792    0.0000 N   0  0  0  0  0  0  0  0  0  0  0  0
   -0.3846    1.6852    0.0000 C   0  0  0  0  0  0  0  0  0  0  0  0
    1.0777    1.3515    0.0000 C   0  0  0  0  0  0  0  0  0  0  0  0
    1.8471    2.6391    0.0000 C   0  0  0  0  0  0  0  0  0  0  0  0
    3.3411    2.7736    0.0000 C   0  0  0  0  0  0  0  0  0  0  0  0
    4.2045    1.5470    0.0000 C   0  0  0  0  0  0  0  0  0  0  0  0
    5.6984    1.6815    0.0000 C   0  0  0  0  0  0  0  0  0  0  0  0
    6.3290    3.0425    0.0000 C   0  0  0  0  0  0  0  0  0  0  0  0
    7.8229    3.1770    0.0000 O   0  0  0  0  0  0  0  0  0  0  0  0
    8.6864    1.9504    0.0000 C   0  0  0  0  0  0  0  0  0  0  0  0
    9.5498    0.7238    0.0000 F   0  0  0  0  0  0  0  0  0  0  0  0
    9.9129    2.8138    0.0000 F   0  0  0  0  0  0  0  0  0  0  0  0
    7.4598    1.0870    0.0000 F   0  0  0  0  0  0  0  0  0  0  0  0
    5.4656    4.2691    0.0000 C   0  0  0  0  0  0  0  0  0  0  0  0
    3.9716    4.1346    0.0000 C   0  0  0  0  0  0  0  0  0  0  0  0
    1.7286    0.0000    0.0000 C   0  0  0  0  0  0  0  0  0  0  0  0
    1.0777   -1.3515    0.0000 C   0  0  0  0  0  0  0  0  0  0  0  0
   -0.3846   -1.6852    0.0000 N   0  0  0  0  0  0  0  0  0  0  0  0
   -1.5574   -0.7500    0.0000 C   0  0  0  0  0  0  0  0  0  0  0  0
   -1.5574    0.7500    0.0000 C   0  0  0  0  0  0  0  0  0  0  0  0
  1  2  1  0
  2  3  1  0
  2  4  1  0
  4  5  1  0
  5  6  2  0
  6  7  1  0
  7  8  2  0
  8  9  1  0
  9 10  2  0
 10 11  1  0
 11 12  2  0
 12 13  1  0
 13 14  1  0
 14 15  1  0
 14 16  1  0
 14 17  1  0
 12 18  1  0
 18 19  2  0
  7 20  1  0
 20 21  1  0
 21 22  1  0
 22 23  1  0
 23 24  1  0
  8  4  1  0
 19  9  1  0
 24  6  1  0
M  END
>  <assay_chembl_id>  (728) 
CHEMBL4677344

>  <assay_description>  (728) 
Displacement of [3H]-ketanserin from human 5-HT2B receptor by competitive radioligand binding assay

>  <parent_molecule_chembl_id>  (728) 
CHEMBL4760784

>  <canonical_smiles>  (728) 
CC(C)n1nc2c(c1-c1ccc(OC(F)(F)F)cc1)CCNCC2

>  <standard_type>  (728) 
Ki

>  <standard_relation>  (728) 
=

>  <standard_value>  (728) 
20.0

>  <standard_units>  (728) 
nM

>  <target_pref_name>  (728) 
Serotonin 2b (5-HT2b) receptor

>  <target_chembl_id>  (728) 
CHEMBL1833

>  <target_organism>  (728) 
Homo sapiens

>  <pchembl_median>  (728) 
6.36

$$$$
CHEMBL4791646
     RDKit          2D

 23 25  0  0  0  0  0  0  0  0999 V2000
    0.0944    6.2514    0.0000 C   0  0  0  0  0  0  0  0  0  0  0  0
    1.1940    5.2311    0.0000 C   0  0  0  0  0  0  0  0  0  0  0  0
    2.6273    5.6733    0.0000 C   0  0  0  0  0  0  0  0  0  0  0  0
    0.8602    3.7687    0.0000 N   0  0  0  0  0  0  0  0  0  0  0  0
   -0.5191    3.1792    0.0000 N   0  0  0  0  0  0  0  0  0  0  0  0
   -0.3846    1.6852    0.0000 C   0  0  0  0  0  0  0  0  0  0  0  0
    1.0777    1.3515    0.0000 C   0  0  0  0  0  0  0  0  0  0  0  0
    1.8471    2.6391    0.0000 C   0  0  0  0  0  0  0  0  0  0  0  0
    3.3411    2.7736    0.0000 C   0  0  0  0  0  0  0  0  0  0  0  0
    4.2045    1.5470    0.0000 C   0  0  0  0  0  0  0  0  0  0  0  0
    5.6984    1.6815    0.0000 C   0  0  0  0  0  0  0  0  0  0  0  0
    6.3290    3.0425    0.0000 C   0  0  0  0  0  0  0  0  0  0  0  0
    7.8229    3.1770    0.0000 C   0  0  0  0  0  0  0  0  0  0  0  0
    9.3169    3.3114    0.0000 F   0  0  0  0  0  0  0  0  0  0  0  0
    7.9574    1.6830    0.0000 F   0  0  0  0  0  0  0  0  0  0  0  0
    7.6885    4.6709    0.0000 F   0  0  0  0  0  0  0  0  0  0  0  0
    5.4656    4.2691    0.0000 C   0  0  0  0  0  0  0  0  0  0  0  0
    3.9716    4.1346    0.0000 C   0  0  0  0  0  0  0  0  0  0  0  0
    1.7286    0.0000    0.0000 C   0  0  0  0  0  0  0  0  0  0  0  0
    1.0777   -1.3515    0.0000 C   0  0  0  0  0  0  0  0  0  0  0  0
   -0.3846   -1.6852    0.0000 N   0  0  0  0  0  0  0  0  0  0  0  0
   -1.5574   -0.7500    0.0000 C   0  0  0  0  0  0  0  0  0  0  0  0
   -1.5574    0.7500    0.0000 C   0  0  0  0  0  0  0  0  0  0  0  0
  1  2  1  0
  2  3  1  0
  2  4  1  0
  4  5  1  0
  5  6  2  0
  6  7  1  0
  7  8  2  0
  8  9  1  0
  9 10  2  0
 10 11  1  0
 11 12  2  0
 12 13  1  0
 13 14  1  0
 13 15  1  0
 13 16  1  0
 12 17  1  0
 17 18  2  0
  7 19  1  0
 19 20  1  0
 20 21  1  0
 21 22  1  0
 22 23  1  0
  8  4  1  0
 18  9  1  0
 23  6  1  0
M  END
>  <assay_chembl_id>  (729) 
CHEMBL4677344

>  <assay_description>  (729) 
Displacement of [3H]-ketanserin from human 5-HT2B receptor by competitive radioligand binding assay

>  <parent_molecule_chembl_id>  (729) 
CHEMBL4791646

>  <canonical_smiles>  (729) 
CC(C)n1nc2c(c1-c1ccc(C(F)(F)F)cc1)CCNCC2

>  <standard_type>  (729) 
Ki

>  <standard_relation>  (729) 
=

>  <standard_value>  (729) 
5.0

>  <standard_units>  (729) 
nM

>  <target_pref_name>  (729) 
Serotonin 2b (5-HT2b) receptor

>  <target_chembl_id>  (729) 
CHEMBL1833

>  <target_organism>  (729) 
Homo sapiens

>  <pchembl_median>  (729) 
6.73

$$$$
CHEMBL4743582
     RDKit          2D

 21 23  0  0  0  0  0  0  0  0999 V2000
    0.0944    6.2514    0.0000 C   0  0  0  0  0  0  0  0  0  0  0  0
    1.1940    5.2311    0.0000 C   0  0  0  0  0  0  0  0  0  0  0  0
    2.6273    5.6733    0.0000 C   0  0  0  0  0  0  0  0  0  0  0  0
    0.8602    3.7687    0.0000 N   0  0  0  0  0  0  0  0  0  0  0  0
   -0.5191    3.1792    0.0000 N   0  0  0  0  0  0  0  0  0  0  0  0
   -0.3846    1.6852    0.0000 C   0  0  0  0  0  0  0  0  0  0  0  0
    1.0777    1.3515    0.0000 C   0  0  0  0  0  0  0  0  0  0  0  0
    1.8471    2.6391    0.0000 C   0  0  0  0  0  0  0  0  0  0  0  0
    3.3411    2.7736    0.0000 C   0  0  0  0  0  0  0  0  0  0  0  0
    4.2045    1.5470    0.0000 C   0  0  0  0  0  0  0  0  0  0  0  0
    5.6984    1.6815    0.0000 C   0  0  0  0  0  0  0  0  0  0  0  0
    6.3290    3.0425    0.0000 C   0  0  0  0  0  0  0  0  0  0  0  0
    7.8229    3.1770    0.0000 C   0  0  0  0  0  0  0  0  0  0  0  0
    9.3169    3.3114    0.0000 N   0  0  0  0  0  0  0  0  0  0  0  0
    5.4656    4.2691    0.0000 C   0  0  0  0  0  0  0  0  0  0  0  0
    3.9716    4.1346    0.0000 C   0  0  0  0  0  0  0  0  0  0  0  0
    1.7286    0.0000    0.0000 C   0  0  0  0  0  0  0  0  0  0  0  0
    1.0777   -1.3515    0.0000 C   0  0  0  0  0  0  0  0  0  0  0  0
   -0.3846   -1.6852    0.0000 N   0  0  0  0  0  0  0  0  0  0  0  0
   -1.5574   -0.7500    0.0000 C   0  0  0  0  0  0  0  0  0  0  0  0
   -1.5574    0.7500    0.0000 C   0  0  0  0  0  0  0  0  0  0  0  0
  1  2  1  0
  2  3  1  0
  2  4  1  0
  4  5  1  0
  5  6  2  0
  6  7  1  0
  7  8  2  0
  8  9  1  0
  9 10  2  0
 10 11  1  0
 11 12  2  0
 12 13  1  0
 13 14  3  0
 12 15  1  0
 15 16  2  0
  7 17  1  0
 17 18  1  0
 18 19  1  0
 19 20  1  0
 20 21  1  0
  8  4  1  0
 16  9  1  0
 21  6  1  0
M  END
>  <assay_chembl_id>  (730) 
CHEMBL4677344

>  <assay_description>  (730) 
Displacement of [3H]-ketanserin from human 5-HT2B receptor by competitive radioligand binding assay

>  <parent_molecule_chembl_id>  (730) 
CHEMBL4743582

>  <canonical_smiles>  (730) 
CC(C)n1nc2c(c1-c1ccc(C#N)cc1)CCNCC2

>  <standard_type>  (730) 
Ki

>  <standard_relation>  (730) 
=

>  <standard_value>  (730) 
12.0

>  <standard_units>  (730) 
nM

>  <target_pref_name>  (730) 
Serotonin 2b (5-HT2b) receptor

>  <target_chembl_id>  (730) 
CHEMBL1833

>  <target_organism>  (730) 
Homo sapiens

>  <pchembl_median>  (730) 
6.72

$$$$
CHEMBL4784845
     RDKit          2D

 20 22  0  0  0  0  0  0  0  0999 V2000
    0.0944    6.2514    0.0000 C   0  0  0  0  0  0  0  0  0  0  0  0
    1.1940    5.2311    0.0000 C   0  0  0  0  0  0  0  0  0  0  0  0
    2.6273    5.6733    0.0000 C   0  0  0  0  0  0  0  0  0  0  0  0
    0.8602    3.7687    0.0000 N   0  0  0  0  0  0  0  0  0  0  0  0
   -0.5191    3.1792    0.0000 N   0  0  0  0  0  0  0  0  0  0  0  0
   -0.3846    1.6852    0.0000 C   0  0  0  0  0  0  0  0  0  0  0  0
    1.0777    1.3515    0.0000 C   0  0  0  0  0  0  0  0  0  0  0  0
    1.8471    2.6391    0.0000 C   0  0  0  0  0  0  0  0  0  0  0  0
    3.3411    2.7736    0.0000 C   0  0  0  0  0  0  0  0  0  0  0  0
    4.2045    1.5470    0.0000 C   0  0  0  0  0  0  0  0  0  0  0  0
    5.6984    1.6815    0.0000 C   0  0  0  0  0  0  0  0  0  0  0  0
    6.3290    3.0425    0.0000 C   0  0  0  0  0  0  0  0  0  0  0  0
    7.8229    3.1770    0.0000 Cl  0  0  0  0  0  0  0  0  0  0  0  0
    5.4656    4.2691    0.0000 C   0  0  0  0  0  0  0  0  0  0  0  0
    3.9716    4.1346    0.0000 C   0  0  0  0  0  0  0  0  0  0  0  0
    1.7286    0.0000    0.0000 C   0  0  0  0  0  0  0  0  0  0  0  0
    1.0777   -1.3515    0.0000 C   0  0  0  0  0  0  0  0  0  0  0  0
   -0.3846   -1.6852    0.0000 N   0  0  0  0  0  0  0  0  0  0  0  0
   -1.5574   -0.7500    0.0000 C   0  0  0  0  0  0  0  0  0  0  0  0
   -1.5574    0.7500    0.0000 C   0  0  0  0  0  0  0  0  0  0  0  0
  1  2  1  0
  2  3  1  0
  2  4  1  0
  4  5  1  0
  5  6  2  0
  6  7  1  0
  7  8  2  0
  8  9  1  0
  9 10  2  0
 10 11  1  0
 11 12  2  0
 12 13  1  0
 12 14  1  0
 14 15  2  0
  7 16  1  0
 16 17  1  0
 17 18  1  0
 18 19  1  0
 19 20  1  0
  8  4  1  0
 15  9  1  0
 20  6  1  0
M  END
>  <assay_chembl_id>  (731) 
CHEMBL4677344

>  <assay_description>  (731) 
Displacement of [3H]-ketanserin from human 5-HT2B receptor by competitive radioligand binding assay

>  <parent_molecule_chembl_id>  (731) 
CHEMBL4784845

>  <canonical_smiles>  (731) 
CC(C)n1nc2c(c1-c1ccc(Cl)cc1)CCNCC2

>  <standard_type>  (731) 
Ki

>  <standard_relation>  (731) 
=

>  <standard_value>  (731) 
1.0

>  <standard_units>  (731) 
nM

>  <target_pref_name>  (731) 
Serotonin 2b (5-HT2b) receptor

>  <target_chembl_id>  (731) 
CHEMBL1833

>  <target_organism>  (731) 
Homo sapiens

>  <pchembl_median>  (731) 
6.31

$$$$
CHEMBL4752099
     RDKit          2D

 21 23  0  0  0  0  0  0  0  0999 V2000
   -5.6474    7.7564    0.0000 C   0  0  0  0  0  0  0  0  0  0  0  0
   -5.6698    6.2566    0.0000 O   0  0  0  0  0  0  0  0  0  0  0  0
   -4.3821    5.4872    0.0000 C   0  0  0  0  0  0  0  0  0  0  0  0
   -3.0720    6.2177    0.0000 C   0  0  0  0  0  0  0  0  0  0  0  0
   -1.7843    5.4484    0.0000 C   0  0  0  0  0  0  0  0  0  0  0  0
   -1.8068    3.9485    0.0000 C   0  0  0  0  0  0  0  0  0  0  0  0
   -0.5191    3.1792    0.0000 C   0  0  0  0  0  0  0  0  0  0  0  0
   -0.3846    1.6852    0.0000 C   0  0  0  0  0  0  0  0  0  0  0  0
    1.0777    1.3515    0.0000 C   0  0  0  0  0  0  0  0  0  0  0  0
    1.8471    2.6391    0.0000 N   0  0  0  0  0  0  0  0  0  0  0  0
    0.8602    3.7687    0.0000 N   0  0  0  0  0  0  0  0  0  0  0  0
    1.1940    5.2311    0.0000 C   0  0  0  0  0  0  0  0  0  0  0  0
    2.6273    5.6733    0.0000 C   0  0  0  0  0  0  0  0  0  0  0  0
    0.0944    6.2514    0.0000 C   0  0  0  0  0  0  0  0  0  0  0  0
    1.7286    0.0000    0.0000 C   0  0  0  0  0  0  0  0  0  0  0  0
    1.0777   -1.3515    0.0000 C   0  0  0  0  0  0  0  0  0  0  0  0
   -0.3846   -1.6852    0.0000 N   0  0  0  0  0  0  0  0  0  0  0  0
   -1.5574   -0.7500    0.0000 C   0  0  0  0  0  0  0  0  0  0  0  0
   -1.5574    0.7500    0.0000 C   0  0  0  0  0  0  0  0  0  0  0  0
   -3.1169    3.2181    0.0000 C   0  0  0  0  0  0  0  0  0  0  0  0
   -4.4046    3.9874    0.0000 C   0  0  0  0  0  0  0  0  0  0  0  0
  1  2  1  0
  2  3  1  0
  3  4  2  0
  4  5  1  0
  5  6  2  0
  6  7  1  0
  7  8  2  0
  8  9  1  0
  9 10  2  0
 10 11  1  0
 11 12  1  0
 12 13  1  0
 12 14  1  0
  9 15  1  0
 15 16  1  0
 16 17  1  0
 17 18  1  0
 18 19  1  0
  6 20  1  0
 20 21  2  0
 21  3  1  0
 11  7  1  0
 19  8  1  0
M  END
>  <assay_chembl_id>  (732) 
CHEMBL4677344

>  <assay_description>  (732) 
Displacement of [3H]-ketanserin from human 5-HT2B receptor by competitive radioligand binding assay

>  <parent_molecule_chembl_id>  (732) 
CHEMBL4752099

>  <canonical_smiles>  (732) 
COc1ccc(-c2c3c(nn2C(C)C)CCNCC3)cc1

>  <standard_type>  (732) 
Ki

>  <standard_relation>  (732) 
=

>  <standard_value>  (732) 
1.0

>  <standard_units>  (732) 
nM

>  <target_pref_name>  (732) 
Serotonin 2b (5-HT2b) receptor

>  <target_chembl_id>  (732) 
CHEMBL1833

>  <target_organism>  (732) 
Homo sapiens

>  <pchembl_median>  (732) 
5.87

$$$$
CHEMBL4746737
     RDKit          2D

 20 22  0  0  0  0  0  0  0  0999 V2000
   -5.6698    6.2566    0.0000 C   0  0  0  0  0  0  0  0  0  0  0  0
   -4.3821    5.4872    0.0000 C   0  0  0  0  0  0  0  0  0  0  0  0
   -3.0720    6.2177    0.0000 C   0  0  0  0  0  0  0  0  0  0  0  0
   -1.7843    5.4484    0.0000 C   0  0  0  0  0  0  0  0  0  0  0  0
   -1.8068    3.9485    0.0000 C   0  0  0  0  0  0  0  0  0  0  0  0
   -0.5191    3.1792    0.0000 C   0  0  0  0  0  0  0  0  0  0  0  0
   -0.3846    1.6852    0.0000 C   0  0  0  0  0  0  0  0  0  0  0  0
    1.0777    1.3515    0.0000 C   0  0  0  0  0  0  0  0  0  0  0  0
    1.8471    2.6391    0.0000 N   0  0  0  0  0  0  0  0  0  0  0  0
    0.8602    3.7687    0.0000 N   0  0  0  0  0  0  0  0  0  0  0  0
    1.1940    5.2311    0.0000 C   0  0  0  0  0  0  0  0  0  0  0  0
    2.6273    5.6733    0.0000 C   0  0  0  0  0  0  0  0  0  0  0  0
    0.0944    6.2514    0.0000 C   0  0  0  0  0  0  0  0  0  0  0  0
    1.7286    0.0000    0.0000 C   0  0  0  0  0  0  0  0  0  0  0  0
    1.0777   -1.3515    0.0000 C   0  0  0  0  0  0  0  0  0  0  0  0
   -0.3846   -1.6852    0.0000 N   0  0  0  0  0  0  0  0  0  0  0  0
   -1.5574   -0.7500    0.0000 C   0  0  0  0  0  0  0  0  0  0  0  0
   -1.5574    0.7500    0.0000 C   0  0  0  0  0  0  0  0  0  0  0  0
   -3.1169    3.2181    0.0000 C   0  0  0  0  0  0  0  0  0  0  0  0
   -4.4046    3.9874    0.0000 C   0  0  0  0  0  0  0  0  0  0  0  0
  1  2  1  0
  2  3  2  0
  3  4  1  0
  4  5  2  0
  5  6  1  0
  6  7  2  0
  7  8  1  0
  8  9  2  0
  9 10  1  0
 10 11  1  0
 11 12  1  0
 11 13  1  0
  8 14  1  0
 14 15  1  0
 15 16  1  0
 16 17  1  0
 17 18  1  0
  5 19  1  0
 19 20  2  0
 20  2  1  0
 10  6  1  0
 18  7  1  0
M  END
>  <assay_chembl_id>  (733) 
CHEMBL4677344

>  <assay_description>  (733) 
Displacement of [3H]-ketanserin from human 5-HT2B receptor by competitive radioligand binding assay

>  <parent_molecule_chembl_id>  (733) 
CHEMBL4746737

>  <canonical_smiles>  (733) 
Cc1ccc(-c2c3c(nn2C(C)C)CCNCC3)cc1

>  <standard_type>  (733) 
Ki

>  <standard_relation>  (733) 
=

>  <standard_value>  (733) 
2.0

>  <standard_units>  (733) 
nM

>  <target_pref_name>  (733) 
Serotonin 2b (5-HT2b) receptor

>  <target_chembl_id>  (733) 
CHEMBL1833

>  <target_organism>  (733) 
Homo sapiens

>  <pchembl_median>  (733) 
6.56

$$$$
CHEMBL4750414
     RDKit          2D

 22 25  0  0  0  0  0  0  0  0999 V2000
   -4.3821    5.4872    0.0000 C   0  0  0  0  0  0  0  0  0  0  0  0
   -3.0720    6.2177    0.0000 C   0  0  0  0  0  0  0  0  0  0  0  0
   -1.7843    5.4484    0.0000 C   0  0  0  0  0  0  0  0  0  0  0  0
   -1.8068    3.9485    0.0000 C   0  0  0  0  0  0  0  0  0  0  0  0
   -0.5191    3.1792    0.0000 C   0  0  0  0  0  0  0  0  0  0  0  0
   -0.3846    1.6852    0.0000 C   0  0  0  0  0  0  0  0  0  0  0  0
    1.0777    1.3515    0.0000 C   0  0  0  0  0  0  0  0  0  0  0  0
    1.8471    2.6391    0.0000 N   0  0  0  0  0  0  0  0  0  0  0  0
    0.8602    3.7687    0.0000 N   0  0  0  0  0  0  0  0  0  0  0  0
    1.1940    5.2311    0.0000 C   0  0  0  0  0  0  0  0  0  0  0  0
    2.6273    5.6733    0.0000 C   0  0  0  0  0  0  0  0  0  0  0  0
    2.9611    7.1357    0.0000 C   0  0  0  0  0  0  0  0  0  0  0  0
    1.8615    8.1559    0.0000 C   0  0  0  0  0  0  0  0  0  0  0  0
    0.4282    7.7138    0.0000 C   0  0  0  0  0  0  0  0  0  0  0  0
    0.0944    6.2514    0.0000 C   0  0  0  0  0  0  0  0  0  0  0  0
    1.7286    0.0000    0.0000 C   0  0  0  0  0  0  0  0  0  0  0  0
    1.0777   -1.3515    0.0000 C   0  0  0  0  0  0  0  0  0  0  0  0
   -0.3846   -1.6852    0.0000 N   0  0  0  0  0  0  0  0  0  0  0  0
   -1.5574   -0.7500    0.0000 C   0  0  0  0  0  0  0  0  0  0  0  0
   -1.5574    0.7500    0.0000 C   0  0  0  0  0  0  0  0  0  0  0  0
   -3.1169    3.2181    0.0000 C   0  0  0  0  0  0  0  0  0  0  0  0
   -4.4046    3.9874    0.0000 C   0  0  0  0  0  0  0  0  0  0  0  0
  1  2  2  0
  2  3  1  0
  3  4  2  0
  4  5  1  0
  5  6  2  0
  6  7  1  0
  7  8  2  0
  8  9  1  0
  9 10  1  0
 10 11  2  0
 11 12  1  0
 12 13  2  0
 13 14  1  0
 14 15  2  0
  7 16  1  0
 16 17  1  0
 17 18  1  0
 18 19  1  0
 19 20  1  0
  4 21  1  0
 21 22  2  0
 22  1  1  0
  9  5  1  0
 15 10  1  0
 20  6  1  0
M  END
>  <assay_chembl_id>  (734) 
CHEMBL4677344

>  <assay_description>  (734) 
Displacement of [3H]-ketanserin from human 5-HT2B receptor by competitive radioligand binding assay

>  <parent_molecule_chembl_id>  (734) 
CHEMBL4750414

>  <canonical_smiles>  (734) 
c1ccc(-c2c3c(nn2-c2ccccc2)CCNCC3)cc1

>  <standard_type>  (734) 
Ki

>  <standard_relation>  (734) 
=

>  <standard_value>  (734) 
15.0

>  <standard_units>  (734) 
nM

>  <target_pref_name>  (734) 
Serotonin 2b (5-HT2b) receptor

>  <target_chembl_id>  (734) 
CHEMBL1833

>  <target_organism>  (734) 
Homo sapiens

>  <pchembl_median>  (734) 
7.75

$$$$
CHEMBL4788327
     RDKit          2D

 20 23  0  0  0  0  0  0  0  0999 V2000
   -4.3821    5.4872    0.0000 C   0  0  0  0  0  0  0  0  0  0  0  0
   -3.0720    6.2177    0.0000 C   0  0  0  0  0  0  0  0  0  0  0  0
   -1.7843    5.4484    0.0000 C   0  0  0  0  0  0  0  0  0  0  0  0
   -1.8068    3.9485    0.0000 C   0  0  0  0  0  0  0  0  0  0  0  0
   -0.5191    3.1792    0.0000 C   0  0  0  0  0  0  0  0  0  0  0  0
   -0.3846    1.6852    0.0000 C   0  0  0  0  0  0  0  0  0  0  0  0
    1.0777    1.3515    0.0000 C   0  0  0  0  0  0  0  0  0  0  0  0
    1.8471    2.6391    0.0000 N   0  0  0  0  0  0  0  0  0  0  0  0
    0.8602    3.7687    0.0000 N   0  0  0  0  0  0  0  0  0  0  0  0
    1.1940    5.2311    0.0000 C   0  0  0  0  0  0  0  0  0  0  0  0
    2.4641    6.0292    0.0000 C   0  0  0  0  0  0  0  0  0  0  0  0
    1.6660    7.2993    0.0000 C   0  0  0  0  0  0  0  0  0  0  0  0
    0.3959    6.5012    0.0000 C   0  0  0  0  0  0  0  0  0  0  0  0
    1.7286    0.0000    0.0000 C   0  0  0  0  0  0  0  0  0  0  0  0
    1.0777   -1.3515    0.0000 C   0  0  0  0  0  0  0  0  0  0  0  0
   -0.3846   -1.6852    0.0000 N   0  0  0  0  0  0  0  0  0  0  0  0
   -1.5574   -0.7500    0.0000 C   0  0  0  0  0  0  0  0  0  0  0  0
   -1.5574    0.7500    0.0000 C   0  0  0  0  0  0  0  0  0  0  0  0
   -3.1169    3.2181    0.0000 C   0  0  0  0  0  0  0  0  0  0  0  0
   -4.4046    3.9874    0.0000 C   0  0  0  0  0  0  0  0  0  0  0  0
  1  2  2  0
  2  3  1  0
  3  4  2  0
  4  5  1  0
  5  6  2  0
  6  7  1  0
  7  8  2  0
  8  9  1  0
  9 10  1  0
 10 11  1  0
 11 12  1  0
 12 13  1  0
  7 14  1  0
 14 15  1  0
 15 16  1  0
 16 17  1  0
 17 18  1  0
  4 19  1  0
 19 20  2  0
 20  1  1  0
  9  5  1  0
 13 10  1  0
 18  6  1  0
M  END
>  <assay_chembl_id>  (735) 
CHEMBL4677344

>  <assay_description>  (735) 
Displacement of [3H]-ketanserin from human 5-HT2B receptor by competitive radioligand binding assay

>  <parent_molecule_chembl_id>  (735) 
CHEMBL4788327

>  <canonical_smiles>  (735) 
c1ccc(-c2c3c(nn2C2CCC2)CCNCC3)cc1

>  <standard_type>  (735) 
Ki

>  <standard_relation>  (735) 
=

>  <standard_value>  (735) 
3.0

>  <standard_units>  (735) 
nM

>  <target_pref_name>  (735) 
Serotonin 2b (5-HT2b) receptor

>  <target_chembl_id>  (735) 
CHEMBL1833

>  <target_organism>  (735) 
Homo sapiens

>  <pchembl_median>  (735) 
6.34

$$$$
CHEMBL4785470
     RDKit          2D

 19 22  0  0  0  0  0  0  0  0999 V2000
   -4.3821    5.4872    0.0000 C   0  0  0  0  0  0  0  0  0  0  0  0
   -3.0720    6.2177    0.0000 C   0  0  0  0  0  0  0  0  0  0  0  0
   -1.7843    5.4484    0.0000 C   0  0  0  0  0  0  0  0  0  0  0  0
   -1.8068    3.9485    0.0000 C   0  0  0  0  0  0  0  0  0  0  0  0
   -0.5191    3.1792    0.0000 C   0  0  0  0  0  0  0  0  0  0  0  0
   -0.3846    1.6852    0.0000 C   0  0  0  0  0  0  0  0  0  0  0  0
    1.0777    1.3515    0.0000 C   0  0  0  0  0  0  0  0  0  0  0  0
    1.8471    2.6391    0.0000 N   0  0  0  0  0  0  0  0  0  0  0  0
    0.8602    3.7687    0.0000 N   0  0  0  0  0  0  0  0  0  0  0  0
    1.1940    5.2311    0.0000 C   0  0  0  0  0  0  0  0  0  0  0  0
    0.7518    6.6645    0.0000 C   0  0  0  0  0  0  0  0  0  0  0  0
    2.2142    6.3307    0.0000 C   0  0  0  0  0  0  0  0  0  0  0  0
    1.7286    0.0000    0.0000 C   0  0  0  0  0  0  0  0  0  0  0  0
    1.0777   -1.3515    0.0000 C   0  0  0  0  0  0  0  0  0  0  0  0
   -0.3846   -1.6852    0.0000 N   0  0  0  0  0  0  0  0  0  0  0  0
   -1.5574   -0.7500    0.0000 C   0  0  0  0  0  0  0  0  0  0  0  0
   -1.5574    0.7500    0.0000 C   0  0  0  0  0  0  0  0  0  0  0  0
   -3.1169    3.2181    0.0000 C   0  0  0  0  0  0  0  0  0  0  0  0
   -4.4046    3.9874    0.0000 C   0  0  0  0  0  0  0  0  0  0  0  0
  1  2  2  0
  2  3  1  0
  3  4  2  0
  4  5  1  0
  5  6  2  0
  6  7  1  0
  7  8  2  0
  8  9  1  0
  9 10  1  0
 10 11  1  0
 11 12  1  0
  7 13  1  0
 13 14  1  0
 14 15  1  0
 15 16  1  0
 16 17  1  0
  4 18  1  0
 18 19  2  0
 19  1  1  0
  9  5  1  0
 12 10  1  0
 17  6  1  0
M  END
>  <assay_chembl_id>  (736) 
CHEMBL4677344

>  <assay_description>  (736) 
Displacement of [3H]-ketanserin from human 5-HT2B receptor by competitive radioligand binding assay

>  <parent_molecule_chembl_id>  (736) 
CHEMBL4785470

>  <canonical_smiles>  (736) 
c1ccc(-c2c3c(nn2C2CC2)CCNCC3)cc1

>  <standard_type>  (736) 
Ki

>  <standard_relation>  (736) 
=

>  <standard_value>  (736) 
20.0

>  <standard_units>  (736) 
nM

>  <target_pref_name>  (736) 
Serotonin 2b (5-HT2b) receptor

>  <target_chembl_id>  (736) 
CHEMBL1833

>  <target_organism>  (736) 
Homo sapiens

>  <pchembl_median>  (736) 
7.7

$$$$
CHEMBL4784424
     RDKit          2D

 20 22  0  0  0  0  0  0  0  0999 V2000
   -0.2684    5.5649    0.0000 C   0  0  0  0  0  0  0  0  0  0  0  0
    1.1940    5.2311    0.0000 C   0  0  0  0  0  0  0  0  0  0  0  0
    2.6564    4.8973    0.0000 C   0  0  0  0  0  0  0  0  0  0  0  0
    1.5278    6.6935    0.0000 C   0  0  0  0  0  0  0  0  0  0  0  0
    0.8602    3.7687    0.0000 N   0  0  0  0  0  0  0  0  0  0  0  0
   -0.5191    3.1792    0.0000 N   0  0  0  0  0  0  0  0  0  0  0  0
   -0.3846    1.6852    0.0000 C   0  0  0  0  0  0  0  0  0  0  0  0
    1.0777    1.3515    0.0000 C   0  0  0  0  0  0  0  0  0  0  0  0
    1.8471    2.6391    0.0000 C   0  0  0  0  0  0  0  0  0  0  0  0
    3.3411    2.7736    0.0000 C   0  0  0  0  0  0  0  0  0  0  0  0
    4.2045    1.5470    0.0000 C   0  0  0  0  0  0  0  0  0  0  0  0
    5.6984    1.6815    0.0000 C   0  0  0  0  0  0  0  0  0  0  0  0
    6.3290    3.0425    0.0000 C   0  0  0  0  0  0  0  0  0  0  0  0
    5.4656    4.2691    0.0000 C   0  0  0  0  0  0  0  0  0  0  0  0
    3.9716    4.1346    0.0000 C   0  0  0  0  0  0  0  0  0  0  0  0
    1.7286    0.0000    0.0000 C   0  0  0  0  0  0  0  0  0  0  0  0
    1.0777   -1.3515    0.0000 C   0  0  0  0  0  0  0  0  0  0  0  0
   -0.3846   -1.6852    0.0000 N   0  0  0  0  0  0  0  0  0  0  0  0
   -1.5574   -0.7500    0.0000 C   0  0  0  0  0  0  0  0  0  0  0  0
   -1.5574    0.7500    0.0000 C   0  0  0  0  0  0  0  0  0  0  0  0
  1  2  1  0
  2  3  1  0
  2  4  1  0
  2  5  1  0
  5  6  1  0
  6  7  2  0
  7  8  1  0
  8  9  2  0
  9 10  1  0
 10 11  2  0
 11 12  1  0
 12 13  2  0
 13 14  1  0
 14 15  2  0
  8 16  1  0
 16 17  1  0
 17 18  1  0
 18 19  1  0
 19 20  1  0
  9  5  1  0
 15 10  1  0
 20  7  1  0
M  END
>  <assay_chembl_id>  (737) 
CHEMBL4677344

>  <assay_description>  (737) 
Displacement of [3H]-ketanserin from human 5-HT2B receptor by competitive radioligand binding assay

>  <parent_molecule_chembl_id>  (737) 
CHEMBL4784424

>  <canonical_smiles>  (737) 
CC(C)(C)n1nc2c(c1-c1ccccc1)CCNCC2

>  <standard_type>  (737) 
Ki

>  <standard_relation>  (737) 
=

>  <standard_value>  (737) 
43.0

>  <standard_units>  (737) 
nM

>  <target_pref_name>  (737) 
Serotonin 2b (5-HT2b) receptor

>  <target_chembl_id>  (737) 
CHEMBL1833

>  <target_organism>  (737) 
Homo sapiens

>  <pchembl_median>  (737) 
8.7

$$$$
CHEMBL4788223
     RDKit          2D

 19 21  0  0  0  0  0  0  0  0999 V2000
    0.0944    6.2514    0.0000 C   0  0  0  0  0  0  0  0  0  0  0  0
    1.1940    5.2311    0.0000 C   0  0  0  0  0  0  0  0  0  0  0  0
    2.6273    5.6733    0.0000 C   0  0  0  0  0  0  0  0  0  0  0  0
    0.8602    3.7687    0.0000 N   0  0  0  0  0  0  0  0  0  0  0  0
   -0.5191    3.1792    0.0000 N   0  0  0  0  0  0  0  0  0  0  0  0
   -0.3846    1.6852    0.0000 C   0  0  0  0  0  0  0  0  0  0  0  0
    1.0777    1.3515    0.0000 C   0  0  0  0  0  0  0  0  0  0  0  0
    1.8471    2.6391    0.0000 C   0  0  0  0  0  0  0  0  0  0  0  0
    3.3411    2.7736    0.0000 C   0  0  0  0  0  0  0  0  0  0  0  0
    4.2045    1.5470    0.0000 C   0  0  0  0  0  0  0  0  0  0  0  0
    5.6984    1.6815    0.0000 C   0  0  0  0  0  0  0  0  0  0  0  0
    6.3290    3.0425    0.0000 C   0  0  0  0  0  0  0  0  0  0  0  0
    5.4656    4.2691    0.0000 C   0  0  0  0  0  0  0  0  0  0  0  0
    3.9716    4.1346    0.0000 C   0  0  0  0  0  0  0  0  0  0  0  0
    1.7286    0.0000    0.0000 C   0  0  0  0  0  0  0  0  0  0  0  0
    1.0777   -1.3515    0.0000 C   0  0  0  0  0  0  0  0  0  0  0  0
   -0.3846   -1.6852    0.0000 N   0  0  0  0  0  0  0  0  0  0  0  0
   -1.5574   -0.7500    0.0000 C   0  0  0  0  0  0  0  0  0  0  0  0
   -1.5574    0.7500    0.0000 C   0  0  0  0  0  0  0  0  0  0  0  0
  1  2  1  0
  2  3  1  0
  2  4  1  0
  4  5  1  0
  5  6  2  0
  6  7  1  0
  7  8  2  0
  8  9  1  0
  9 10  2  0
 10 11  1  0
 11 12  2  0
 12 13  1  0
 13 14  2  0
  7 15  1  0
 15 16  1  0
 16 17  1  0
 17 18  1  0
 18 19  1  0
  8  4  1  0
 14  9  1  0
 19  6  1  0
M  END
>  <assay_chembl_id>  (738) 
CHEMBL4677344

>  <assay_description>  (738) 
Displacement of [3H]-ketanserin from human 5-HT2B receptor by competitive radioligand binding assay

>  <parent_molecule_chembl_id>  (738) 
CHEMBL4788223

>  <canonical_smiles>  (738) 
CC(C)n1nc2c(c1-c1ccccc1)CCNCC2

>  <standard_type>  (738) 
Ki

>  <standard_relation>  (738) 
=

>  <standard_value>  (738) 
19.0

>  <standard_units>  (738) 
nM

>  <target_pref_name>  (738) 
Serotonin 2b (5-HT2b) receptor

>  <target_chembl_id>  (738) 
CHEMBL1833

>  <target_organism>  (738) 
Homo sapiens

>  <pchembl_median>  (738) 
8.8

$$$$
CHEMBL4795756
     RDKit          2D

 18 20  0  0  0  0  0  0  0  0999 V2000
    0.0944    6.2514    0.0000 C   0  0  0  0  0  0  0  0  0  0  0  0
    1.1940    5.2311    0.0000 C   0  0  0  0  0  0  0  0  0  0  0  0
    0.8602    3.7687    0.0000 N   0  0  0  0  0  0  0  0  0  0  0  0
   -0.5191    3.1792    0.0000 N   0  0  0  0  0  0  0  0  0  0  0  0
   -0.3846    1.6852    0.0000 C   0  0  0  0  0  0  0  0  0  0  0  0
    1.0777    1.3515    0.0000 C   0  0  0  0  0  0  0  0  0  0  0  0
    1.8471    2.6391    0.0000 C   0  0  0  0  0  0  0  0  0  0  0  0
    3.3411    2.7736    0.0000 C   0  0  0  0  0  0  0  0  0  0  0  0
    4.2045    1.5470    0.0000 C   0  0  0  0  0  0  0  0  0  0  0  0
    5.6984    1.6815    0.0000 C   0  0  0  0  0  0  0  0  0  0  0  0
    6.3290    3.0425    0.0000 C   0  0  0  0  0  0  0  0  0  0  0  0
    5.4656    4.2691    0.0000 C   0  0  0  0  0  0  0  0  0  0  0  0
    3.9716    4.1346    0.0000 C   0  0  0  0  0  0  0  0  0  0  0  0
    1.7286    0.0000    0.0000 C   0  0  0  0  0  0  0  0  0  0  0  0
    1.0777   -1.3515    0.0000 C   0  0  0  0  0  0  0  0  0  0  0  0
   -0.3846   -1.6852    0.0000 N   0  0  0  0  0  0  0  0  0  0  0  0
   -1.5574   -0.7500    0.0000 C   0  0  0  0  0  0  0  0  0  0  0  0
   -1.5574    0.7500    0.0000 C   0  0  0  0  0  0  0  0  0  0  0  0
  1  2  1  0
  2  3  1  0
  3  4  1  0
  4  5  2  0
  5  6  1  0
  6  7  2  0
  7  8  1  0
  8  9  2  0
  9 10  1  0
 10 11  2  0
 11 12  1  0
 12 13  2  0
  6 14  1  0
 14 15  1  0
 15 16  1  0
 16 17  1  0
 17 18  1  0
  7  3  1  0
 13  8  1  0
 18  5  1  0
M  END
>  <assay_chembl_id>  (739) 
CHEMBL4677344

>  <assay_description>  (739) 
Displacement of [3H]-ketanserin from human 5-HT2B receptor by competitive radioligand binding assay

>  <parent_molecule_chembl_id>  (739) 
CHEMBL4795756

>  <canonical_smiles>  (739) 
CCn1nc2c(c1-c1ccccc1)CCNCC2

>  <standard_type>  (739) 
Ki

>  <standard_relation>  (739) 
=

>  <standard_value>  (739) 
75.0

>  <standard_units>  (739) 
nM

>  <target_pref_name>  (739) 
Serotonin 2b (5-HT2b) receptor

>  <target_chembl_id>  (739) 
CHEMBL1833

>  <target_organism>  (739) 
Homo sapiens

>  <pchembl_median>  (739) 
7.34

$$$$
CHEMBL4776557
     RDKit          2D

 17 19  0  0  0  0  0  0  0  0999 V2000
   -0.7500   -9.0933    0.0000 C   0  0  0  0  0  0  0  0  0  0  0  0
   -1.5000   -7.7942    0.0000 C   0  0  0  0  0  0  0  0  0  0  0  0
   -0.7500   -6.4952    0.0000 C   0  0  0  0  0  0  0  0  0  0  0  0
   -1.5000   -5.1962    0.0000 C   0  0  0  0  0  0  0  0  0  0  0  0
   -3.0000   -5.1962    0.0000 C   0  0  0  0  0  0  0  0  0  0  0  0
   -3.7500   -3.8971    0.0000 C   0  0  0  0  0  0  0  0  0  0  0  0
   -3.0000   -2.5981    0.0000 C   0  0  0  0  0  0  0  0  0  0  0  0
   -1.5000   -2.5981    0.0000 C   0  0  0  0  0  0  0  0  0  0  0  0
   -0.7500   -3.8971    0.0000 C   0  0  0  0  0  0  0  0  0  0  0  0
    0.7500   -3.8971    0.0000 C   0  0  0  0  0  0  0  0  0  0  0  0
    1.5000   -2.5981    0.0000 C   0  0  0  0  0  0  0  0  0  0  0  0
    0.7500   -1.2990    0.0000 C   0  0  0  0  0  0  0  0  0  0  0  0
    1.5000    0.0000    0.0000 C   0  0  0  0  0  0  0  0  0  0  0  0
    0.7500    1.2990    0.0000 N   0  0  0  0  0  0  0  0  0  0  0  0
   -0.7500    1.2990    0.0000 C   0  0  0  0  0  0  0  0  0  0  0  0
   -1.5000    0.0000    0.0000 C   0  0  0  0  0  0  0  0  0  0  0  0
   -0.7500   -1.2990    0.0000 N   0  0  0  0  0  0  0  0  0  0  0  0
  1  2  1  0
  2  3  1  0
  3  4  1  0
  4  5  2  0
  5  6  1  0
  6  7  2  0
  7  8  1  0
  8  9  2  0
  9 10  1  0
 10 11  1  0
 12 11  1  1
 12 13  1  0
 13 14  1  0
 14 15  1  0
 15 16  1  0
 16 17  1  0
  9  4  1  0
 17 12  1  0
 17  8  1  0
M  END
>  <assay_chembl_id>  (740) 
CHEMBL4714289

>  <assay_description>  (740) 
Displacement of [3H]-LSB from recombinant human 5HT2BR transfected in human HEK293 cells incubated for 45 mins by radioligand binding assay

>  <parent_molecule_chembl_id>  (740) 
CHEMBL4776557

>  <canonical_smiles>  (740) 
CCCc1cccc2c1CC[C@@H]1CNCCN21

>  <standard_type>  (740) 
Ki

>  <standard_relation>  (740) 
=

>  <standard_value>  (740) 
12.59

>  <standard_units>  (740) 
nM

>  <target_pref_name>  (740) 
Serotonin 2b (5-HT2b) receptor

>  <target_chembl_id>  (740) 
CHEMBL1833

>  <target_organism>  (740) 
Homo sapiens

>  <pchembl_median>  (740) 
7.31

$$$$
CHEMBL4757718
     RDKit          2D

 20 22  0  0  0  0  0  0  0  0999 V2000
   -0.0000  -10.3923    0.0000 F   0  0  0  0  0  0  0  0  0  0  0  0
   -0.7500   -9.0933    0.0000 C   0  0  0  0  0  0  0  0  0  0  0  0
   -2.0490   -9.8433    0.0000 F   0  0  0  0  0  0  0  0  0  0  0  0
    0.5490   -8.3433    0.0000 F   0  0  0  0  0  0  0  0  0  0  0  0
   -1.5000   -7.7942    0.0000 C   0  0  0  0  0  0  0  0  0  0  0  0
   -0.7500   -6.4952    0.0000 C   0  0  0  0  0  0  0  0  0  0  0  0
   -1.5000   -5.1962    0.0000 C   0  0  0  0  0  0  0  0  0  0  0  0
   -3.0000   -5.1962    0.0000 C   0  0  0  0  0  0  0  0  0  0  0  0
   -3.7500   -3.8971    0.0000 C   0  0  0  0  0  0  0  0  0  0  0  0
   -3.0000   -2.5981    0.0000 C   0  0  0  0  0  0  0  0  0  0  0  0
   -1.5000   -2.5981    0.0000 C   0  0  0  0  0  0  0  0  0  0  0  0
   -0.7500   -3.8971    0.0000 C   0  0  0  0  0  0  0  0  0  0  0  0
    0.7500   -3.8971    0.0000 C   0  0  0  0  0  0  0  0  0  0  0  0
    1.5000   -2.5981    0.0000 C   0  0  0  0  0  0  0  0  0  0  0  0
    0.7500   -1.2990    0.0000 C   0  0  0  0  0  0  0  0  0  0  0  0
    1.5000    0.0000    0.0000 C   0  0  0  0  0  0  0  0  0  0  0  0
    0.7500    1.2990    0.0000 N   0  0  0  0  0  0  0  0  0  0  0  0
   -0.7500    1.2990    0.0000 C   0  0  0  0  0  0  0  0  0  0  0  0
   -1.5000    0.0000    0.0000 C   0  0  0  0  0  0  0  0  0  0  0  0
   -0.7500   -1.2990    0.0000 N   0  0  0  0  0  0  0  0  0  0  0  0
  1  2  1  0
  2  3  1  0
  2  4  1  0
  2  5  1  0
  5  6  1  0
  6  7  1  0
  7  8  2  0
  8  9  1  0
  9 10  2  0
 10 11  1  0
 11 12  2  0
 12 13  1  0
 13 14  1  0
 15 14  1  1
 15 16  1  0
 16 17  1  0
 17 18  1  0
 18 19  1  0
 19 20  1  0
 12  7  1  0
 20 15  1  0
 20 11  1  0
M  END
>  <assay_chembl_id>  (741) 
CHEMBL4714289

>  <assay_description>  (741) 
Displacement of [3H]-LSB from recombinant human 5HT2BR transfected in human HEK293 cells incubated for 45 mins by radioligand binding assay

>  <parent_molecule_chembl_id>  (741) 
CHEMBL4757718

>  <canonical_smiles>  (741) 
FC(F)(F)CCc1cccc2c1CC[C@@H]1CNCCN21

>  <standard_type>  (741) 
Ki

>  <standard_relation>  (741) 
=

>  <standard_value>  (741) 
100.0

>  <standard_units>  (741) 
nM

>  <target_pref_name>  (741) 
Serotonin 2b (5-HT2b) receptor

>  <target_chembl_id>  (741) 
CHEMBL1833

>  <target_organism>  (741) 
Homo sapiens

>  <pchembl_median>  (741) 
7.06

$$$$
CHEMBL4765074
     RDKit          2D

 17 19  0  0  0  0  0  0  0  0999 V2000
   -0.7500   -9.0933    0.0000 C   0  0  0  0  0  0  0  0  0  0  0  0
   -1.5000   -7.7942    0.0000 C   0  0  0  0  0  0  0  0  0  0  0  0
   -0.7500   -6.4952    0.0000 C   0  0  0  0  0  0  0  0  0  0  0  0
   -1.5000   -5.1962    0.0000 C   0  0  0  0  0  0  0  0  0  0  0  0
   -3.0000   -5.1962    0.0000 C   0  0  0  0  0  0  0  0  0  0  0  0
   -3.7500   -3.8971    0.0000 C   0  0  0  0  0  0  0  0  0  0  0  0
   -3.0000   -2.5981    0.0000 N   0  0  0  0  0  0  0  0  0  0  0  0
   -1.5000   -2.5981    0.0000 C   0  0  0  0  0  0  0  0  0  0  0  0
   -0.7500   -3.8971    0.0000 C   0  0  0  0  0  0  0  0  0  0  0  0
    0.7500   -3.8971    0.0000 C   0  0  0  0  0  0  0  0  0  0  0  0
    1.5000   -2.5981    0.0000 C   0  0  0  0  0  0  0  0  0  0  0  0
    0.7500   -1.2990    0.0000 C   0  0  0  0  0  0  0  0  0  0  0  0
    1.5000    0.0000    0.0000 C   0  0  0  0  0  0  0  0  0  0  0  0
    0.7500    1.2990    0.0000 N   0  0  0  0  0  0  0  0  0  0  0  0
   -0.7500    1.2990    0.0000 C   0  0  0  0  0  0  0  0  0  0  0  0
   -1.5000    0.0000    0.0000 C   0  0  0  0  0  0  0  0  0  0  0  0
   -0.7500   -1.2990    0.0000 N   0  0  0  0  0  0  0  0  0  0  0  0
  1  2  1  0
  2  3  1  0
  3  4  1  0
  4  5  2  0
  5  6  1  0
  6  7  2  0
  7  8  1  0
  8  9  2  0
  9 10  1  0
 10 11  1  0
 12 11  1  1
 12 13  1  0
 13 14  1  0
 14 15  1  0
 15 16  1  0
 16 17  1  0
  9  4  1  0
 17 12  1  0
 17  8  1  0
M  END
>  <assay_chembl_id>  (742) 
CHEMBL4714289

>  <assay_description>  (742) 
Displacement of [3H]-LSB from recombinant human 5HT2BR transfected in human HEK293 cells incubated for 45 mins by radioligand binding assay

>  <parent_molecule_chembl_id>  (742) 
CHEMBL4765074

>  <canonical_smiles>  (742) 
CCCc1ccnc2c1CC[C@@H]1CNCCN21

>  <standard_type>  (742) 
Ki

>  <standard_relation>  (742) 
=

>  <standard_value>  (742) 
10.0

>  <standard_units>  (742) 
nM

>  <target_pref_name>  (742) 
Serotonin 2b (5-HT2b) receptor

>  <target_chembl_id>  (742) 
CHEMBL1833

>  <target_organism>  (742) 
Homo sapiens

>  <pchembl_median>  (742) 
7.51

$$$$
CHEMBL4213447
     RDKit          2D

 19 22  0  0  0  0  0  0  0  0999 V2000
    3.7500   -3.8971    0.0000 C   0  0  0  0  0  0  0  0  0  0  0  0
    3.0000   -5.1962    0.0000 C   0  0  0  0  0  0  0  0  0  0  0  0
    1.5000   -5.1962    0.0000 C   0  0  0  0  0  0  0  0  0  0  0  0
    0.7500   -6.4952    0.0000 C   0  0  0  0  0  0  0  0  0  0  0  0
    1.5000   -7.7942    0.0000 C   0  0  0  0  0  0  0  0  0  0  0  0
    1.1118   -9.2431    0.0000 C   0  0  0  0  0  0  0  0  0  0  0  0
    2.5607   -9.6313    0.0000 C   0  0  0  0  0  0  0  0  0  0  0  0
    2.9489   -8.1825    0.0000 C   0  0  0  0  0  0  0  0  0  0  0  0
    0.7500   -3.8971    0.0000 C   0  0  0  0  0  0  0  0  0  0  0  0
    1.5000   -2.5981    0.0000 C   0  0  0  0  0  0  0  0  0  0  0  0
    3.0000   -2.5981    0.0000 N   0  0  0  0  0  0  0  0  0  0  0  0
    0.7500   -1.2990    0.0000 N   0  0  0  0  0  0  0  0  0  0  0  0
    1.5000    0.0000    0.0000 C   0  0  0  0  0  0  0  0  0  0  0  0
    0.7500    1.2990    0.0000 C   0  0  0  0  0  0  0  0  0  0  0  0
   -0.7500    1.2990    0.0000 N   0  0  0  0  0  0  0  0  0  0  0  0
   -1.5000    0.0000    0.0000 C   0  0  0  0  0  0  0  0  0  0  0  0
   -0.7500   -1.2990    0.0000 C   0  0  0  0  0  0  0  0  0  0  0  0
   -1.5000   -2.5981    0.0000 C   0  0  0  0  0  0  0  0  0  0  0  0
   -0.7500   -3.8971    0.0000 C   0  0  0  0  0  0  0  0  0  0  0  0
  1  2  2  0
  2  3  1  0
  3  4  1  0
  4  5  1  0
  5  6  1  0
  6  7  1  0
  7  8  1  0
  3  9  2  0
  9 10  1  0
 10 11  2  0
 10 12  1  0
 12 13  1  0
 13 14  1  0
 14 15  1  0
 15 16  1  0
 17 16  1  6
 17 18  1  0
 18 19  1  0
 11  1  1  0
 17 12  1  0
  8  5  1  0
 19  9  1  0
M  END
>  <assay_chembl_id>  (743) 
CHEMBL4714289

>  <assay_description>  (743) 
Displacement of [3H]-LSB from recombinant human 5HT2BR transfected in human HEK293 cells incubated for 45 mins by radioligand binding assay

>  <parent_molecule_chembl_id>  (743) 
CHEMBL4213447

>  <canonical_smiles>  (743) 
c1cc(CC2CCC2)c2c(n1)N1CCNC[C@H]1CC2

>  <standard_type>  (743) 
Ki

>  <standard_relation>  (743) 
=

>  <standard_value>  (743) 
39.81

>  <standard_units>  (743) 
nM

>  <target_pref_name>  (743) 
Serotonin 2b (5-HT2b) receptor

>  <target_chembl_id>  (743) 
CHEMBL1833

>  <target_organism>  (743) 
Homo sapiens

>  <pchembl_median>  (743) 
6.45

$$$$
CHEMBL4213379
     RDKit          2D

 21 24  0  0  0  0  0  0  0  0999 V2000
   -3.0000  -10.3923    0.0000 C   0  0  0  0  0  0  0  0  0  0  0  0
   -3.7500   -9.0933    0.0000 C   0  0  0  0  0  0  0  0  0  0  0  0
   -3.0000   -7.7942    0.0000 C   0  0  0  0  0  0  0  0  0  0  0  0
   -1.5000   -7.7942    0.0000 C   0  0  0  0  0  0  0  0  0  0  0  0
   -0.7500   -6.4952    0.0000 C   0  0  0  0  0  0  0  0  0  0  0  0
   -1.5000   -5.1962    0.0000 C   0  0  0  0  0  0  0  0  0  0  0  0
   -3.0000   -5.1962    0.0000 C   0  0  0  0  0  0  0  0  0  0  0  0
   -3.7500   -3.8971    0.0000 C   0  0  0  0  0  0  0  0  0  0  0  0
   -3.0000   -2.5981    0.0000 N   0  0  0  0  0  0  0  0  0  0  0  0
   -1.5000   -2.5981    0.0000 C   0  0  0  0  0  0  0  0  0  0  0  0
   -0.7500   -3.8971    0.0000 C   0  0  0  0  0  0  0  0  0  0  0  0
    0.7500   -3.8971    0.0000 C   0  0  0  0  0  0  0  0  0  0  0  0
    1.5000   -2.5981    0.0000 C   0  0  0  0  0  0  0  0  0  0  0  0
    0.7500   -1.2990    0.0000 C   0  0  0  0  0  0  0  0  0  0  0  0
    1.5000    0.0000    0.0000 C   0  0  0  0  0  0  0  0  0  0  0  0
    0.7500    1.2990    0.0000 N   0  0  0  0  0  0  0  0  0  0  0  0
   -0.7500    1.2990    0.0000 C   0  0  0  0  0  0  0  0  0  0  0  0
   -1.5000    0.0000    0.0000 C   0  0  0  0  0  0  0  0  0  0  0  0
   -0.7500   -1.2990    0.0000 N   0  0  0  0  0  0  0  0  0  0  0  0
   -0.7500   -9.0933    0.0000 C   0  0  0  0  0  0  0  0  0  0  0  0
   -1.5000  -10.3923    0.0000 C   0  0  0  0  0  0  0  0  0  0  0  0
  1  2  2  0
  2  3  1  0
  3  4  2  0
  4  5  1  0
  5  6  1  0
  6  7  2  0
  7  8  1  0
  8  9  2  0
  9 10  1  0
 10 11  2  0
 11 12  1  0
 12 13  1  0
 14 13  1  1
 14 15  1  0
 15 16  1  0
 16 17  1  0
 17 18  1  0
 18 19  1  0
  4 20  1  0
 20 21  2  0
 21  1  1  0
 11  6  1  0
 19 14  1  0
 19 10  1  0
M  END
>  <assay_chembl_id>  (744) 
CHEMBL4714289

>  <assay_description>  (744) 
Displacement of [3H]-LSB from recombinant human 5HT2BR transfected in human HEK293 cells incubated for 45 mins by radioligand binding assay

>  <parent_molecule_chembl_id>  (744) 
CHEMBL4213379

>  <canonical_smiles>  (744) 
c1ccc(Cc2ccnc3c2CC[C@@H]2CNCCN32)cc1

>  <standard_type>  (744) 
Ki

>  <standard_relation>  (744) 
=

>  <standard_value>  (744) 
25.12

>  <standard_units>  (744) 
nM

>  <target_pref_name>  (744) 
Serotonin 2b (5-HT2b) receptor

>  <target_chembl_id>  (744) 
CHEMBL1833

>  <target_organism>  (744) 
Homo sapiens

>  <pchembl_median>  (744) 
7.21

$$$$
CHEMBL4777852
     RDKit          2D

 18 20  0  0  0  0  0  0  0  0999 V2000
   -0.7500   -9.0933    0.0000 C   0  0  0  0  0  0  0  0  0  0  0  0
   -1.5000   -7.7942    0.0000 C   0  0  0  0  0  0  0  0  0  0  0  0
   -3.0000   -7.7942    0.0000 C   0  0  0  0  0  0  0  0  0  0  0  0
   -0.7500   -6.4952    0.0000 C   0  0  0  0  0  0  0  0  0  0  0  0
   -1.5000   -5.1962    0.0000 C   0  0  0  0  0  0  0  0  0  0  0  0
   -3.0000   -5.1962    0.0000 C   0  0  0  0  0  0  0  0  0  0  0  0
   -3.7500   -3.8971    0.0000 C   0  0  0  0  0  0  0  0  0  0  0  0
   -3.0000   -2.5981    0.0000 N   0  0  0  0  0  0  0  0  0  0  0  0
   -1.5000   -2.5981    0.0000 C   0  0  0  0  0  0  0  0  0  0  0  0
   -0.7500   -3.8971    0.0000 C   0  0  0  0  0  0  0  0  0  0  0  0
    0.7500   -3.8971    0.0000 C   0  0  0  0  0  0  0  0  0  0  0  0
    1.5000   -2.5981    0.0000 C   0  0  0  0  0  0  0  0  0  0  0  0
    0.7500   -1.2990    0.0000 C   0  0  0  0  0  0  0  0  0  0  0  0
    1.5000    0.0000    0.0000 C   0  0  0  0  0  0  0  0  0  0  0  0
    0.7500    1.2990    0.0000 N   0  0  0  0  0  0  0  0  0  0  0  0
   -0.7500    1.2990    0.0000 C   0  0  0  0  0  0  0  0  0  0  0  0
   -1.5000    0.0000    0.0000 C   0  0  0  0  0  0  0  0  0  0  0  0
   -0.7500   -1.2990    0.0000 N   0  0  0  0  0  0  0  0  0  0  0  0
  1  2  1  0
  2  3  1  0
  2  4  1  0
  4  5  1  0
  5  6  2  0
  6  7  1  0
  7  8  2  0
  8  9  1  0
  9 10  2  0
 10 11  1  0
 11 12  1  0
 13 12  1  1
 13 14  1  0
 14 15  1  0
 15 16  1  0
 16 17  1  0
 17 18  1  0
 10  5  1  0
 18 13  1  0
 18  9  1  0
M  END
>  <assay_chembl_id>  (745) 
CHEMBL4714289

>  <assay_description>  (745) 
Displacement of [3H]-LSB from recombinant human 5HT2BR transfected in human HEK293 cells incubated for 45 mins by radioligand binding assay

>  <parent_molecule_chembl_id>  (745) 
CHEMBL4777852

>  <canonical_smiles>  (745) 
CC(C)Cc1ccnc2c1CC[C@@H]1CNCCN21

>  <standard_type>  (745) 
Ki

>  <standard_relation>  (745) 
=

>  <standard_value>  (745) 
31.62

>  <standard_units>  (745) 
nM

>  <target_pref_name>  (745) 
Serotonin 2b (5-HT2b) receptor

>  <target_chembl_id>  (745) 
CHEMBL1833

>  <target_organism>  (745) 
Homo sapiens

>  <pchembl_median>  (745) 
6.72

$$$$
CHEMBL4206126
     RDKit          2D

 20 22  0  0  0  0  0  0  0  0999 V2000
   -0.0000  -10.3923    0.0000 F   0  0  0  0  0  0  0  0  0  0  0  0
   -0.7500   -9.0933    0.0000 C   0  0  0  0  0  0  0  0  0  0  0  0
   -2.0490   -9.8433    0.0000 F   0  0  0  0  0  0  0  0  0  0  0  0
    0.5490   -8.3433    0.0000 F   0  0  0  0  0  0  0  0  0  0  0  0
   -1.5000   -7.7942    0.0000 C   0  0  0  0  0  0  0  0  0  0  0  0
   -0.7500   -6.4952    0.0000 C   0  0  0  0  0  0  0  0  0  0  0  0
   -1.5000   -5.1962    0.0000 C   0  0  0  0  0  0  0  0  0  0  0  0
   -3.0000   -5.1962    0.0000 C   0  0  0  0  0  0  0  0  0  0  0  0
   -3.7500   -3.8971    0.0000 C   0  0  0  0  0  0  0  0  0  0  0  0
   -3.0000   -2.5981    0.0000 N   0  0  0  0  0  0  0  0  0  0  0  0
   -1.5000   -2.5981    0.0000 C   0  0  0  0  0  0  0  0  0  0  0  0
   -0.7500   -3.8971    0.0000 C   0  0  0  0  0  0  0  0  0  0  0  0
    0.7500   -3.8971    0.0000 C   0  0  0  0  0  0  0  0  0  0  0  0
    1.5000   -2.5981    0.0000 C   0  0  0  0  0  0  0  0  0  0  0  0
    0.7500   -1.2990    0.0000 C   0  0  0  0  0  0  0  0  0  0  0  0
    1.5000    0.0000    0.0000 C   0  0  0  0  0  0  0  0  0  0  0  0
    0.7500    1.2990    0.0000 N   0  0  0  0  0  0  0  0  0  0  0  0
   -0.7500    1.2990    0.0000 C   0  0  0  0  0  0  0  0  0  0  0  0
   -1.5000    0.0000    0.0000 C   0  0  0  0  0  0  0  0  0  0  0  0
   -0.7500   -1.2990    0.0000 N   0  0  0  0  0  0  0  0  0  0  0  0
  1  2  1  0
  2  3  1  0
  2  4  1  0
  2  5  1  0
  5  6  1  0
  6  7  1  0
  7  8  2  0
  8  9  1  0
  9 10  2  0
 10 11  1  0
 11 12  2  0
 12 13  1  0
 13 14  1  0
 15 14  1  1
 15 16  1  0
 16 17  1  0
 17 18  1  0
 18 19  1  0
 19 20  1  0
 12  7  1  0
 20 15  1  0
 20 11  1  0
M  END
>  <assay_chembl_id>  (746) 
CHEMBL4714289

>  <assay_description>  (746) 
Displacement of [3H]-LSB from recombinant human 5HT2BR transfected in human HEK293 cells incubated for 45 mins by radioligand binding assay

>  <parent_molecule_chembl_id>  (746) 
CHEMBL4206126

>  <canonical_smiles>  (746) 
FC(F)(F)CCc1ccnc2c1CC[C@@H]1CNCCN21

>  <standard_type>  (746) 
Ki

>  <standard_relation>  (746) 
=

>  <standard_value>  (746) 
199.53

>  <standard_units>  (746) 
nM

>  <target_pref_name>  (746) 
Serotonin 2b (5-HT2b) receptor

>  <target_chembl_id>  (746) 
CHEMBL1833

>  <target_organism>  (746) 
Homo sapiens

>  <pchembl_median>  (746) 
7.16

$$$$
CHEMBL4785566
     RDKit          2D

 17 19  0  0  0  0  0  0  0  0999 V2000
   -0.7500   -9.0933    0.0000 C   0  0  0  0  0  0  0  0  0  0  0  0
   -1.5000   -7.7942    0.0000 O   0  0  0  0  0  0  0  0  0  0  0  0
   -0.7500   -6.4952    0.0000 C   0  0  0  0  0  0  0  0  0  0  0  0
   -1.5000   -5.1962    0.0000 C   0  0  0  0  0  0  0  0  0  0  0  0
   -3.0000   -5.1962    0.0000 C   0  0  0  0  0  0  0  0  0  0  0  0
   -3.7500   -3.8971    0.0000 C   0  0  0  0  0  0  0  0  0  0  0  0
   -3.0000   -2.5981    0.0000 N   0  0  0  0  0  0  0  0  0  0  0  0
   -1.5000   -2.5981    0.0000 C   0  0  0  0  0  0  0  0  0  0  0  0
   -0.7500   -3.8971    0.0000 C   0  0  0  0  0  0  0  0  0  0  0  0
    0.7500   -3.8971    0.0000 C   0  0  0  0  0  0  0  0  0  0  0  0
    1.5000   -2.5981    0.0000 C   0  0  0  0  0  0  0  0  0  0  0  0
    0.7500   -1.2990    0.0000 C   0  0  0  0  0  0  0  0  0  0  0  0
    1.5000    0.0000    0.0000 C   0  0  0  0  0  0  0  0  0  0  0  0
    0.7500    1.2990    0.0000 N   0  0  0  0  0  0  0  0  0  0  0  0
   -0.7500    1.2990    0.0000 C   0  0  0  0  0  0  0  0  0  0  0  0
   -1.5000    0.0000    0.0000 C   0  0  0  0  0  0  0  0  0  0  0  0
   -0.7500   -1.2990    0.0000 N   0  0  0  0  0  0  0  0  0  0  0  0
  1  2  1  0
  2  3  1  0
  3  4  1  0
  4  5  2  0
  5  6  1  0
  6  7  2  0
  7  8  1  0
  8  9  2  0
  9 10  1  0
 10 11  1  0
 12 11  1  1
 12 13  1  0
 13 14  1  0
 14 15  1  0
 15 16  1  0
 16 17  1  0
  9  4  1  0
 17 12  1  0
 17  8  1  0
M  END
>  <assay_chembl_id>  (747) 
CHEMBL4714289

>  <assay_description>  (747) 
Displacement of [3H]-LSB from recombinant human 5HT2BR transfected in human HEK293 cells incubated for 45 mins by radioligand binding assay

>  <parent_molecule_chembl_id>  (747) 
CHEMBL4785566

>  <canonical_smiles>  (747) 
COCc1ccnc2c1CC[C@@H]1CNCCN21

>  <standard_type>  (747) 
Ki

>  <standard_relation>  (747) 
=

>  <standard_value>  (747) 
125.89

>  <standard_units>  (747) 
nM

>  <target_pref_name>  (747) 
Serotonin 2b (5-HT2b) receptor

>  <target_chembl_id>  (747) 
CHEMBL1833

>  <target_organism>  (747) 
Homo sapiens

>  <pchembl_median>  (747) 
7.16

$$$$
CHEMBL4218374
     RDKit          2D

 17 19  0  0  0  0  0  0  0  0999 V2000
   -0.7500   -9.0933    0.0000 C   0  0  0  0  0  0  0  0  0  0  0  0
   -1.5000   -7.7942    0.0000 C   0  0  0  0  0  0  0  0  0  0  0  0
   -0.7500   -6.4952    0.0000 C   0  0  0  0  0  0  0  0  0  0  0  0
   -1.5000   -5.1962    0.0000 C   0  0  0  0  0  0  0  0  0  0  0  0
   -3.0000   -5.1962    0.0000 C   0  0  0  0  0  0  0  0  0  0  0  0
   -3.7500   -3.8971    0.0000 N   0  0  0  0  0  0  0  0  0  0  0  0
   -3.0000   -2.5981    0.0000 C   0  0  0  0  0  0  0  0  0  0  0  0
   -1.5000   -2.5981    0.0000 C   0  0  0  0  0  0  0  0  0  0  0  0
   -0.7500   -3.8971    0.0000 C   0  0  0  0  0  0  0  0  0  0  0  0
    0.7500   -3.8971    0.0000 C   0  0  0  0  0  0  0  0  0  0  0  0
    1.5000   -2.5981    0.0000 C   0  0  0  0  0  0  0  0  0  0  0  0
    0.7500   -1.2990    0.0000 C   0  0  0  0  0  0  0  0  0  0  0  0
    1.5000    0.0000    0.0000 C   0  0  0  0  0  0  0  0  0  0  0  0
    0.7500    1.2990    0.0000 N   0  0  0  0  0  0  0  0  0  0  0  0
   -0.7500    1.2990    0.0000 C   0  0  0  0  0  0  0  0  0  0  0  0
   -1.5000    0.0000    0.0000 C   0  0  0  0  0  0  0  0  0  0  0  0
   -0.7500   -1.2990    0.0000 N   0  0  0  0  0  0  0  0  0  0  0  0
  1  2  1  0
  2  3  1  0
  3  4  1  0
  4  5  2  0
  5  6  1  0
  6  7  2  0
  7  8  1  0
  8  9  2  0
  9 10  1  0
 10 11  1  0
 12 11  1  1
 12 13  1  0
 13 14  1  0
 14 15  1  0
 15 16  1  0
 16 17  1  0
  9  4  1  0
 17 12  1  0
 17  8  1  0
M  END
>  <assay_chembl_id>  (748) 
CHEMBL4714289

>  <assay_description>  (748) 
Displacement of [3H]-LSB from recombinant human 5HT2BR transfected in human HEK293 cells incubated for 45 mins by radioligand binding assay

>  <parent_molecule_chembl_id>  (748) 
CHEMBL4218374

>  <canonical_smiles>  (748) 
CCCc1cncc2c1CC[C@@H]1CNCCN21

>  <standard_type>  (748) 
Ki

>  <standard_relation>  (748) 
=

>  <standard_value>  (748) 
125.89

>  <standard_units>  (748) 
nM

>  <target_pref_name>  (748) 
Serotonin 2b (5-HT2b) receptor

>  <target_chembl_id>  (748) 
CHEMBL1833

>  <target_organism>  (748) 
Homo sapiens

>  <pchembl_median>  (748) 
7.7

$$$$
CHEMBL4778570
     RDKit          2D

 21 24  0  0  0  0  0  0  0  0999 V2000
   -3.0000  -10.3923    0.0000 C   0  0  0  0  0  0  0  0  0  0  0  0
   -3.7500   -9.0933    0.0000 C   0  0  0  0  0  0  0  0  0  0  0  0
   -3.0000   -7.7942    0.0000 C   0  0  0  0  0  0  0  0  0  0  0  0
   -1.5000   -7.7942    0.0000 C   0  0  0  0  0  0  0  0  0  0  0  0
   -0.7500   -6.4952    0.0000 C   0  0  0  0  0  0  0  0  0  0  0  0
   -1.5000   -5.1962    0.0000 C   0  0  0  0  0  0  0  0  0  0  0  0
   -3.0000   -5.1962    0.0000 C   0  0  0  0  0  0  0  0  0  0  0  0
   -3.7500   -3.8971    0.0000 N   0  0  0  0  0  0  0  0  0  0  0  0
   -3.0000   -2.5981    0.0000 C   0  0  0  0  0  0  0  0  0  0  0  0
   -1.5000   -2.5981    0.0000 C   0  0  0  0  0  0  0  0  0  0  0  0
   -0.7500   -3.8971    0.0000 C   0  0  0  0  0  0  0  0  0  0  0  0
    0.7500   -3.8971    0.0000 C   0  0  0  0  0  0  0  0  0  0  0  0
    1.5000   -2.5981    0.0000 C   0  0  0  0  0  0  0  0  0  0  0  0
    0.7500   -1.2990    0.0000 C   0  0  0  0  0  0  0  0  0  0  0  0
    1.5000    0.0000    0.0000 C   0  0  0  0  0  0  0  0  0  0  0  0
    0.7500    1.2990    0.0000 N   0  0  0  0  0  0  0  0  0  0  0  0
   -0.7500    1.2990    0.0000 C   0  0  0  0  0  0  0  0  0  0  0  0
   -1.5000    0.0000    0.0000 C   0  0  0  0  0  0  0  0  0  0  0  0
   -0.7500   -1.2990    0.0000 N   0  0  0  0  0  0  0  0  0  0  0  0
   -0.7500   -9.0933    0.0000 C   0  0  0  0  0  0  0  0  0  0  0  0
   -1.5000  -10.3923    0.0000 C   0  0  0  0  0  0  0  0  0  0  0  0
  1  2  2  0
  2  3  1  0
  3  4  2  0
  4  5  1  0
  5  6  1  0
  6  7  2  0
  7  8  1  0
  8  9  2  0
  9 10  1  0
 10 11  2  0
 11 12  1  0
 12 13  1  0
 14 13  1  1
 14 15  1  0
 15 16  1  0
 16 17  1  0
 17 18  1  0
 18 19  1  0
  4 20  1  0
 20 21  2  0
 21  1  1  0
 11  6  1  0
 19 14  1  0
 19 10  1  0
M  END
>  <assay_chembl_id>  (749) 
CHEMBL4714289

>  <assay_description>  (749) 
Displacement of [3H]-LSB from recombinant human 5HT2BR transfected in human HEK293 cells incubated for 45 mins by radioligand binding assay

>  <parent_molecule_chembl_id>  (749) 
CHEMBL4778570

>  <canonical_smiles>  (749) 
c1ccc(Cc2cncc3c2CC[C@@H]2CNCCN32)cc1

>  <standard_type>  (749) 
Ki

>  <standard_relation>  (749) 
=

>  <standard_value>  (749) 
251.19

>  <standard_units>  (749) 
nM

>  <target_pref_name>  (749) 
Serotonin 2b (5-HT2b) receptor

>  <target_chembl_id>  (749) 
CHEMBL1833

>  <target_organism>  (749) 
Homo sapiens

>  <pchembl_median>  (749) 
7.68

$$$$
CHEMBL3612941
     RDKit          2D

 33 37  0  0  0  0  0  0  0  0999 V2000
    4.1831    6.5422    0.0000 C   0  0  0  0  0  0  0  0  0  0  0  0
    3.8712    5.0750    0.0000 C   0  0  0  0  0  0  0  0  0  0  0  0
    2.4446    4.6115    0.0000 C   0  0  0  0  0  0  0  0  0  0  0  0
    2.1328    3.1443    0.0000 N   0  0  0  0  0  0  0  0  0  0  0  0
    0.7062    2.6807    0.0000 C   0  0  0  0  0  0  0  0  0  0  0  0
   -0.4086    3.6844    0.0000 C   0  0  0  0  0  0  0  0  0  0  0  0
   -1.8351    3.2209    0.0000 C   0  0  0  0  0  0  0  0  0  0  0  0
   -2.9499    4.2246    0.0000 C   0  0  0  0  0  0  0  0  0  0  0  0
   -4.0646    5.2283    0.0000 C   0  0  0  0  0  0  0  0  0  0  0  0
   -5.1793    6.2320    0.0000 C   0  0  0  0  0  0  0  0  0  0  0  0
   -6.6465    5.9201    0.0000 C   0  0  0  0  0  0  0  0  0  0  0  0
   -7.3965    7.2192    0.0000 C   0  0  0  0  0  0  0  0  0  0  0  0
   -6.3928    8.3339    0.0000 C   0  0  0  0  0  0  0  0  0  0  0  0
   -6.7047    9.8011    0.0000 Cl  0  0  0  0  0  0  0  0  0  0  0  0
   -5.0225    7.7238    0.0000 S   0  0  0  0  0  0  0  0  0  0  0  0
   -2.1470    1.7537    0.0000 N   0  0  0  0  0  0  0  0  0  0  0  0
   -1.0323    0.7500    0.0000 C   0  0  0  0  0  0  0  0  0  0  0  0
    0.3943    1.2135    0.0000 C   0  0  0  0  0  0  0  0  0  0  0  0
    1.2760    0.0000    0.0000 N   0  0  0  0  0  0  0  0  0  0  0  0
    0.3943   -1.2135    0.0000 C   0  0  0  0  0  0  0  0  0  0  0  0
   -1.0323   -0.7500    0.0000 N   0  0  0  0  0  0  0  0  0  0  0  0
   -2.2458   -1.6317    0.0000 C   0  0  0  0  0  0  0  0  0  0  0  0
   -3.6724   -1.1682    0.0000 C   0  0  0  0  0  0  0  0  0  0  0  0
   -4.1359    0.2584    0.0000 O   0  0  0  0  0  0  0  0  0  0  0  0
   -4.5541   -2.3817    0.0000 C   0  0  0  0  0  0  0  0  0  0  0  0
   -6.0541   -2.3817    0.0000 O   0  0  0  0  0  0  0  0  0  0  0  0
   -3.6724   -3.5952    0.0000 C   0  0  0  0  0  0  0  0  0  0  0  0
   -4.7871   -4.5989    0.0000 C   0  0  0  0  0  0  0  0  0  0  0  0
   -6.2137   -4.1354    0.0000 O   0  0  0  0  0  0  0  0  0  0  0  0
   -4.4752   -6.0661    0.0000 N   0  0  0  0  0  0  0  0  0  0  0  0
   -5.5900   -7.0698    0.0000 C   0  0  0  0  0  0  0  0  0  0  0  0
   -2.5577   -4.5989    0.0000 C   0  0  0  0  0  0  0  0  0  0  0  0
   -2.2458   -3.1317    0.0000 C   0  0  0  0  0  0  0  0  0  0  0  0
  1  2  1  0
  2  3  1  0
  3  4  1  0
  4  5  1  0
  5  6  2  0
  6  7  1  0
  7  8  1  0
  8  9  3  0
  9 10  1  0
 10 11  2  0
 11 12  1  0
 12 13  2  0
 13 14  1  0
 13 15  1  0
  7 16  2  0
 16 17  1  0
 17 18  2  0
 18 19  1  0
 19 20  2  0
 20 21  1  0
 22 21  1  6
 22 23  1  0
 23 24  1  1
 23 25  1  0
 25 26  1  1
 25 27  1  0
 27 28  1  6
 28 29  2  0
 28 30  1  0
 30 31  1  0
 27 32  1  0
 33 32  1  1
 18  5  1  0
 33 22  1  0
 15 10  1  0
 21 17  1  0
 33 27  1  0
M  END
>  <assay_chembl_id>  (750) 
CHEMBL4731033

>  <assay_description>  (750) 
Displacement of [3H]-LSD from recombinant human 5HT2B receptor expressed in stable HEK cells after 90 mins by microbeta scintillation counting method

>  <parent_molecule_chembl_id>  (750) 
CHEMBL3612941

>  <canonical_smiles>  (750) 
CCCNc1cc(C#Cc2ccc(Cl)s2)nc2c1ncn2[C@H]1[C@H](O)[C@H](O)[C@]2(C(=O)NC)C[C@H]12

>  <standard_type>  (750) 
Ki

>  <standard_relation>  (750) 
=

>  <standard_value>  (750) 
760.0

>  <standard_units>  (750) 
nM

>  <target_pref_name>  (750) 
Serotonin 2b (5-HT2b) receptor

>  <target_chembl_id>  (750) 
CHEMBL1833

>  <target_organism>  (750) 
Homo sapiens

>  <pchembl_median>  (750) 
7.6

$$$$
